                                  MODFLOW-NWT-SWR1 
      U.S. GEOLOGICAL SURVEY MODULAR FINITE-DIFFERENCE GROUNDWATER-FLOW MODEL
                            VERSION 1.1.0, 7/21/2016
                    BASED ON MODFLOW-2005 VERSION 1.11.00 08/30/2013

 LIST FILE: swi2ex4sww.lst
                         UNIT    2

 OPENING swi2ex4sww.dis
 FILE TYPE:DIS   UNIT   11   STATUS:OLD    
 FORMAT:FORMATTED              ACCESS:SEQUENTIAL          

 OPENING swi2ex4sww.bas
 FILE TYPE:BAS6   UNIT   13   STATUS:OLD    
 FORMAT:FORMATTED              ACCESS:SEQUENTIAL          

 OPENING swi2ex4sww.ghb
 FILE TYPE:GHB   UNIT   23   STATUS:OLD    
 FORMAT:FORMATTED              ACCESS:SEQUENTIAL          

 OPENING swi2ex4sww.wel
 FILE TYPE:WEL   UNIT   20   STATUS:OLD    
 FORMAT:FORMATTED              ACCESS:SEQUENTIAL          

 OPENING swi2ex4sww.upw
 FILE TYPE:UPW   UNIT   15   STATUS:OLD    
 FORMAT:FORMATTED              ACCESS:SEQUENTIAL          

 OPENING swi2ex4sww.swi
 FILE TYPE:SWI2   UNIT   29   STATUS:OLD    
 FORMAT:FORMATTED              ACCESS:SEQUENTIAL          

 OPENING swi2ex4sww.zta
 FILE TYPE:DATA(BINARY)   UNIT   55   STATUS:REPLACE
 FORMAT:BINARY                 ACCESS:SEQUENTIAL          

 OPENING swi2ex4sww.oc
 FILE TYPE:OC   UNIT   14   STATUS:OLD    
 FORMAT:FORMATTED              ACCESS:SEQUENTIAL          

 OPENING swi2ex4sww.hds
 FILE TYPE:DATA(BINARY)   UNIT   51   STATUS:REPLACE
 FORMAT:BINARY                 ACCESS:SEQUENTIAL          

 OPENING swi2ex4sww.nwt
 FILE TYPE:NWT   UNIT   27   STATUS:OLD    
 FORMAT:FORMATTED              ACCESS:SEQUENTIAL          

 BAS -- BASIC PACKAGE, VERSION 1.1.0, 6/21/2016 INPUT READ FROM UNIT   13
 
 MODFLOW was compiled using mixed precision
 Precision of REAL variables:           6
 Precision of DOUBLE PRECISION variables:          15

 DISCRETIZATION INPUT DATA READ FROM UNIT   11
 # Discretization file for MODFLOW, generated by Flopy.
    2 LAYERS        61 ROWS        61 COLUMNS
    3 STRESS PERIOD(S) IN SIMULATION
 MODEL TIME UNIT IS DAYS
 MODEL LENGTH UNIT IS METERS
  Confining bed flag for each layer:
   0   0

                     DELR =   50.0000    

                     DELC =   50.0000    



           TOP ELEVATION OF LAYER 1
 READING ON UNIT   11 WITH FORMAT:            (5G13.0) 



             MODEL LAYER BOTTOM EL. FOR LAYER   1
 READING ON UNIT   11 WITH FORMAT:            (5G13.0) 



             MODEL LAYER BOTTOM EL. FOR LAYER   2
 READING ON UNIT   11 WITH FORMAT:            (5G13.0) 


 STRESS PERIOD     LENGTH       TIME STEPS     MULTIPLIER FOR DELT    SS FLAG
 ----------------------------------------------------------------------------
        1         73000.00       1000                    1.000         SS
        2         4380.000        120                    1.000         SS
        3         6570.000        180                    1.000         SS

 STEADY-STATE SIMULATION



 
 # Basic package file for MODFLOW, generated by Flopy.                           
 THE FREE FORMAT OPTION HAS BEEN SELECTED



                     BOUNDARY ARRAY FOR LAYER   1
 READING ON UNIT   13 WITH FORMAT:               (5I4) 



                     BOUNDARY ARRAY FOR LAYER   2
 READING ON UNIT   13 WITH FORMAT:               (5I4) 

 AQUIFER HEAD WILL BE SET TO  -999.99     AT ALL NO-FLOW NODES (IBOUND=0).



                       INITIAL HEAD FOR LAYER   1
 READING ON UNIT   13 WITH FORMAT:            (5G13.0) 



                       INITIAL HEAD FOR LAYER   2
 READING ON UNIT   13 WITH FORMAT:            (5G13.0) 
 # Output control package file for MODFLOW, generated by Flopy. Output control by words option

 OUTPUT CONTROL IS SPECIFIED ONLY AT TIME STEPS FOR WHICH OUTPUT IS DESIRED
 HEAD PRINT FORMAT CODE IS   0    DRAWDOWN PRINT FORMAT CODE IS   0
 HEADS WILL BE SAVED ON UNIT   51    DRAWDOWNS WILL BE SAVED ON UNIT    0
 # NWT Input File
 # SWI2 example problem 4 for MODFLOW-NWT
 #HEADTOL  FLUXTOL MAXITEROUT THICKFACT LINMETH IPRNWT IBOTAV OPTIONS DBDREDUCE DBDINCREASE DBDGAMMA MOMFACT BACKFLAG MAXBACKITER BACKTOL BACKREDUCE

 NWT1 -- Newton Solver, VERSION 1.1.0, 6/21/2016
         INPUT READ FROM UNIT 27

 SIMPLE OPTION:
 DEFAULT SOLVER INPUT VALUES REFLECT NEARLY LINEAR MODEL
 ***XMD linear solver will be used***
 
   CONVERGENCE CRITERION OF   0.100000E-04 FOR HEAD SOLUTION
   AND A TOLERANCE OF   0.500000E-01 FOR FLOW SOLUTION AND 
   A MAXIMUM OF   100 OUTER ITERATIONS. 


   D-B-D REDUCTION FACTOR OF    0.970000E+00 AND 
   A D-B-D INCREASE FACTOR OF    0.100000E-03 AND 
   A D-B-D RELAXATION OF    0.000000E+00 AND 
   A MOMENTUM FACTOR OF    0.000000E+00 .


 ***BACKTRACKING IS INACTIVE***
 XMD -- LINEAR SOLUTION BY XMD PACKAGE VERSION 1.30
     BY MOTOMU IBARAKI, OHIO STATE UNIVERSITY, COLOMBUS, OH
                 INPUT READ FROM UNIT 27
 ACCELERATION METHOD                    (IACL) =         1
 NODE ORDERING FLAG                   (NORDER) =         0
 LEVEL OF FILL                         (LEVEL) =         1
 MAXIMUM NUMBER OF ORTHOGONALIZATIONS  (NORTH) =         5
 INDEX FOR USING REDUCED SYSTEM      (IREDSYS) =         1
 RESID. REDUCTION CONVERGE CRITERION  (RRCTOL) =  0.000000E+00
 INDEX FOR USING DROP TOLERANCE     (IDROPTOL) =         1
 DROP TOLERANCE VALUE                  (EPSRN) =  0.500000E-02
 CONVERGENCE CRITERIA OF           (HCLOSEXMD) =  0.100000E-02
 MAX. NUMBER OF LINEAR ITERATIONS  (MXITERXMD) =        50


 UPW1 -- UPSTREAM WEIGHTING FLOW PACKAGE, VERSION 1.1.0, 6/21/2016
         INPUT READ FROM UNIT 15

 # LPF for MODFLOW, generated by Flopy.
 CELL-BY-CELL FLOWS WILL BE SAVED ON UNIT   53
 No named parameters

   LAYER FLAGS:
 LAYER       LAYTYP          LAYAVG    CHANI           LAYVKA           LAYWET
 ---------------------------------------------------------------------------
    1             0             0     1.000E+00             0             0
    2             0             0     1.000E+00             0             0

   INTERPRETATION OF LAYER FLAGS:
                        INTERBLOCK     HORIZONTAL    DATA IN
         LAYER TYPE   TRANSMISSIVITY   ANISOTROPY   ARRAY VKA   WETTABILITY
 LAYER   (LAYTYP)        (LAYAVG)      (CHANI)     (LAYVKA)       (LAYWET)
 ---------------------------------------------------------------------------
    1      CONFINED      HARMONIC     1.000E+00    VERTICAL K  NON-WETTABLE
    2      CONFINED      HARMONIC     1.000E+00    VERTICAL K  NON-WETTABLE

    HYD. COND. ALONG ROWS =   10.0000     FOR LAYER   1

      VERTICAL HYD. COND. =  0.200000     FOR LAYER   1

    HYD. COND. ALONG ROWS =   10.0000     FOR LAYER   2

      VERTICAL HYD. COND. =  0.200000     FOR LAYER   2

 WEL -- WELL PACKAGE FOR NWT VERSION 1.1.0,  6/21/2016 INPUT READ FROM UNIT   20
 # Well file for MODFLOW, generated by Flopy.
 No named parameters
 MAXIMUM OF   1683 ACTIVE WELLS AT ONE TIME
 LISTS OF WELL CELLS WILL NOT BE PRINTED


     0 Well parameters

 GHB -- GENERAL-HEAD BOUNDARY PACKAGE, VERSION 7, 5/2/2005
         INPUT READ FROM UNIT   23
 # GHB for MODFLOW, generated by Flopy.
 No named parameters
 MAXIMUM OF   2040 ACTIVE GHB CELLS AT ONE TIME


     0 GHB parameters


 SWI2 -- SWI PACKAGE, VERSION 2.0.0, 07/22/2013
 --------------------------------------------------
 SWI2 INPUT READ FROM UNIT 29


 # Salt Water Intrusion package file for MODFLOW-2005, generated by Flopy.
 #--Dataset 1


 SWI2 DATASET 1
 ----------------------------------------------------
 NUMBER OF SURFACES (NSRF):                         1
 TOTAL NUMBER OF ZONES:                             2
 DENSITY DISTRIBUTION OPTION (ISTRAT):              1
   VARIABLE DENSITY FLOW -- ISTRAT = 0
   STRATIFIED FLOW       -- ISTRAT = 1
 NUMBER OF SWI OBSERVATIONS (NOBS):                 0
 ZETA OUTPUT FILE UNIT NUMBER (ISWIZT):            55
 BUDGET OUTPUT FILE UNIT NUMBER (ISWICB):           0
 OBSERVATION OUTPUT FILE UNIT NUMBER (ISWIOBS):     0
 ----------------------------------------------------
 #--Dataset 2a


 SWI2 DATASET 2A
 ----------------------------------------------------
 SOLVER (NSOLVER):                                  1
   SOLVER =                      DIRECT SOLVER (DE4)
 SOLVER PRINTOUT INTERVAL (IPRSOL):               999
 SOLVER OUTPUT FLAG (MUTSOL):                       3
   0 = PRINTING EVERY ITERATION
   1 = LIMITED (TOTAL NUMBER OF ITERATIONS)
   2 = NO PRINTING
   3 = ONLY IF CONVERGENCE FAILS
 ----------------------------------------------------
 #--Dataset 3a


 SWI2 DATASET 3A
 ----------------------------------------------------
 MAXIMUM TOE SURFACE SLOPE (TOESLOPE):      0.500E-02
 MAXIMUM TIP SURFACE SLOPE (TIPSLOPE):      0.500E-02
 EXCESS SURFACE SLOPE FRACTION (ALPHA):     0.100    
 MINIMUM ZONE THICKNESS FRACTION (BETA):    0.100    
 ----------------------------------------------------



                             NUZONE
 READING ON UNIT   29 WITH FORMAT:           (20G13.0) 



                   ZETA SURFACE  1  FOR LAYER   1
 READING ON UNIT   29 WITH FORMAT:           (61G13.0) 



                   ZETA SURFACE  1  FOR LAYER   2
 READING ON UNIT   29 WITH FORMAT:           (61G13.0) 

                      SSZ =  0.200000     FOR LAYER   1

                      SSZ =  0.200000     FOR LAYER   2



                            IZONENR FOR LAYER   1
 READING ON UNIT   29 WITH FORMAT:             (61I13) 



                            IZONENR FOR LAYER   2
 READING ON UNIT   29 WITH FORMAT:             (61I13) 
1
                            STRESS PERIOD NO.    1, LENGTH =   73000.00    
                            -----------------------------------------------

                              NUMBER OF TIME STEPS =  1000

                               MULTIPLIER FOR DELT =     1.000

                            INITIAL TIME STEP SIZE =   73.00000    

   1683 WELLS

 BOUND. NO. LAYER   ROW   COL     STAGE      CONDUCTANCE         
 ----------------------------------------------------------------
      1      1      1      1       0.000           62.50    
      2      1      1      2       0.000           62.50    
      3      1      1      3       0.000           62.50    
      4      1      1      4       0.000           62.50    
      5      1      1      5       0.000           62.50    
      6      1      1      6       0.000           62.50    
      7      1      1      7       0.000           62.50    
      8      1      1      8       0.000           62.50    
      9      1      1      9       0.000           62.50    
     10      1      1     10       0.000           62.50    
     11      1      1     11       0.000           62.50    
     12      1      1     12       0.000           62.50    
     13      1      1     13       0.000           62.50    
     14      1      1     14       0.000           62.50    
     15      1      1     15       0.000           62.50    
     16      1      1     16       0.000           62.50    
     17      1      1     17       0.000           62.50    
     18      1      1     18       0.000           62.50    
     19      1      1     19       0.000           62.50    
     20      1      1     20       0.000           62.50    
     21      1      1     21       0.000           62.50    
     22      1      1     22       0.000           62.50    
     23      1      1     23       0.000           62.50    
     24      1      1     24       0.000           62.50    
     25      1      1     25       0.000           62.50    
     26      1      1     26       0.000           62.50    
     27      1      1     27       0.000           62.50    
     28      1      1     28       0.000           62.50    
     29      1      1     29       0.000           62.50    
     30      1      1     30       0.000           62.50    
     31      1      1     31       0.000           62.50    
     32      1      1     32       0.000           62.50    
     33      1      1     33       0.000           62.50    
     34      1      1     34       0.000           62.50    
     35      1      1     35       0.000           62.50    
     36      1      1     36       0.000           62.50    
     37      1      1     37       0.000           62.50    
     38      1      1     38       0.000           62.50    
     39      1      1     39       0.000           62.50    
     40      1      1     40       0.000           62.50    
     41      1      1     41       0.000           62.50    
     42      1      1     42       0.000           62.50    
     43      1      1     43       0.000           62.50    
     44      1      1     44       0.000           62.50    
     45      1      1     45       0.000           62.50    
     46      1      1     46       0.000           62.50    
     47      1      1     47       0.000           62.50    
     48      1      1     48       0.000           62.50    
     49      1      1     49       0.000           62.50    
     50      1      1     50       0.000           62.50    
     51      1      1     51       0.000           62.50    
     52      1      1     52       0.000           62.50    
     53      1      1     53       0.000           62.50    
     54      1      1     54       0.000           62.50    
     55      1      1     55       0.000           62.50    
     56      1      1     56       0.000           62.50    
     57      1      1     57       0.000           62.50    
     58      1      1     58       0.000           62.50    
     59      1      1     59       0.000           62.50    
     60      1      1     60       0.000           62.50    
     61      1      1     61       0.000           62.50    
     62      1      2      1       0.000           62.50    
     63      1      2      2       0.000           62.50    
     64      1      2      3       0.000           62.50    
     65      1      2      4       0.000           62.50    
     66      1      2      5       0.000           62.50    
     67      1      2      6       0.000           62.50    
     68      1      2      7       0.000           62.50    
     69      1      2      8       0.000           62.50    
     70      1      2      9       0.000           62.50    
     71      1      2     10       0.000           62.50    
     72      1      2     11       0.000           62.50    
     73      1      2     12       0.000           62.50    
     74      1      2     13       0.000           62.50    
     75      1      2     14       0.000           62.50    
     76      1      2     15       0.000           62.50    
     77      1      2     16       0.000           62.50    
     78      1      2     17       0.000           62.50    
     79      1      2     18       0.000           62.50    
     80      1      2     19       0.000           62.50    
     81      1      2     20       0.000           62.50    
     82      1      2     21       0.000           62.50    
     83      1      2     22       0.000           62.50    
     84      1      2     23       0.000           62.50    
     85      1      2     24       0.000           62.50    
     86      1      2     25       0.000           62.50    
     87      1      2     26       0.000           62.50    
     88      1      2     27       0.000           62.50    
     89      1      2     28       0.000           62.50    
     90      1      2     29       0.000           62.50    
     91      1      2     30       0.000           62.50    
     92      1      2     31       0.000           62.50    
     93      1      2     32       0.000           62.50    
     94      1      2     33       0.000           62.50    
     95      1      2     34       0.000           62.50    
     96      1      2     35       0.000           62.50    
     97      1      2     36       0.000           62.50    
     98      1      2     37       0.000           62.50    
     99      1      2     38       0.000           62.50    
    100      1      2     39       0.000           62.50    
    101      1      2     40       0.000           62.50    
    102      1      2     41       0.000           62.50    
    103      1      2     42       0.000           62.50    
    104      1      2     43       0.000           62.50    
    105      1      2     44       0.000           62.50    
    106      1      2     45       0.000           62.50    
    107      1      2     46       0.000           62.50    
    108      1      2     47       0.000           62.50    
    109      1      2     48       0.000           62.50    
    110      1      2     49       0.000           62.50    
    111      1      2     50       0.000           62.50    
    112      1      2     51       0.000           62.50    
    113      1      2     52       0.000           62.50    
    114      1      2     53       0.000           62.50    
    115      1      2     54       0.000           62.50    
    116      1      2     55       0.000           62.50    
    117      1      2     56       0.000           62.50    
    118      1      2     57       0.000           62.50    
    119      1      2     58       0.000           62.50    
    120      1      2     59       0.000           62.50    
    121      1      2     60       0.000           62.50    
    122      1      2     61       0.000           62.50    
    123      1      3      1       0.000           62.50    
    124      1      3      2       0.000           62.50    
    125      1      3      3       0.000           62.50    
    126      1      3      4       0.000           62.50    
    127      1      3      5       0.000           62.50    
    128      1      3      6       0.000           62.50    
    129      1      3      7       0.000           62.50    
    130      1      3      8       0.000           62.50    
    131      1      3      9       0.000           62.50    
    132      1      3     10       0.000           62.50    
    133      1      3     11       0.000           62.50    
    134      1      3     12       0.000           62.50    
    135      1      3     13       0.000           62.50    
    136      1      3     14       0.000           62.50    
    137      1      3     15       0.000           62.50    
    138      1      3     16       0.000           62.50    
    139      1      3     17       0.000           62.50    
    140      1      3     18       0.000           62.50    
    141      1      3     19       0.000           62.50    
    142      1      3     20       0.000           62.50    
    143      1      3     21       0.000           62.50    
    144      1      3     22       0.000           62.50    
    145      1      3     23       0.000           62.50    
    146      1      3     24       0.000           62.50    
    147      1      3     25       0.000           62.50    
    148      1      3     26       0.000           62.50    
    149      1      3     27       0.000           62.50    
    150      1      3     28       0.000           62.50    
    151      1      3     29       0.000           62.50    
    152      1      3     30       0.000           62.50    
    153      1      3     31       0.000           62.50    
    154      1      3     32       0.000           62.50    
    155      1      3     33       0.000           62.50    
    156      1      3     34       0.000           62.50    
    157      1      3     35       0.000           62.50    
    158      1      3     36       0.000           62.50    
    159      1      3     37       0.000           62.50    
    160      1      3     38       0.000           62.50    
    161      1      3     39       0.000           62.50    
    162      1      3     40       0.000           62.50    
    163      1      3     41       0.000           62.50    
    164      1      3     42       0.000           62.50    
    165      1      3     43       0.000           62.50    
    166      1      3     44       0.000           62.50    
    167      1      3     45       0.000           62.50    
    168      1      3     46       0.000           62.50    
    169      1      3     47       0.000           62.50    
    170      1      3     48       0.000           62.50    
    171      1      3     49       0.000           62.50    
    172      1      3     50       0.000           62.50    
    173      1      3     51       0.000           62.50    
    174      1      3     52       0.000           62.50    
    175      1      3     53       0.000           62.50    
    176      1      3     54       0.000           62.50    
    177      1      3     55       0.000           62.50    
    178      1      3     56       0.000           62.50    
    179      1      3     57       0.000           62.50    
    180      1      3     58       0.000           62.50    
    181      1      3     59       0.000           62.50    
    182      1      3     60       0.000           62.50    
    183      1      3     61       0.000           62.50    
    184      1      4      1       0.000           62.50    
    185      1      4      2       0.000           62.50    
    186      1      4      3       0.000           62.50    
    187      1      4      4       0.000           62.50    
    188      1      4      5       0.000           62.50    
    189      1      4      6       0.000           62.50    
    190      1      4      7       0.000           62.50    
    191      1      4      8       0.000           62.50    
    192      1      4      9       0.000           62.50    
    193      1      4     10       0.000           62.50    
    194      1      4     11       0.000           62.50    
    195      1      4     12       0.000           62.50    
    196      1      4     13       0.000           62.50    
    197      1      4     14       0.000           62.50    
    198      1      4     15       0.000           62.50    
    199      1      4     16       0.000           62.50    
    200      1      4     17       0.000           62.50    
    201      1      4     18       0.000           62.50    
    202      1      4     19       0.000           62.50    
    203      1      4     20       0.000           62.50    
    204      1      4     21       0.000           62.50    
    205      1      4     22       0.000           62.50    
    206      1      4     23       0.000           62.50    
    207      1      4     24       0.000           62.50    
    208      1      4     25       0.000           62.50    
    209      1      4     26       0.000           62.50    
    210      1      4     27       0.000           62.50    
    211      1      4     28       0.000           62.50    
    212      1      4     29       0.000           62.50    
    213      1      4     30       0.000           62.50    
    214      1      4     31       0.000           62.50    
    215      1      4     32       0.000           62.50    
    216      1      4     33       0.000           62.50    
    217      1      4     34       0.000           62.50    
    218      1      4     35       0.000           62.50    
    219      1      4     36       0.000           62.50    
    220      1      4     37       0.000           62.50    
    221      1      4     38       0.000           62.50    
    222      1      4     39       0.000           62.50    
    223      1      4     40       0.000           62.50    
    224      1      4     41       0.000           62.50    
    225      1      4     42       0.000           62.50    
    226      1      4     43       0.000           62.50    
    227      1      4     44       0.000           62.50    
    228      1      4     45       0.000           62.50    
    229      1      4     46       0.000           62.50    
    230      1      4     47       0.000           62.50    
    231      1      4     48       0.000           62.50    
    232      1      4     49       0.000           62.50    
    233      1      4     50       0.000           62.50    
    234      1      4     51       0.000           62.50    
    235      1      4     52       0.000           62.50    
    236      1      4     53       0.000           62.50    
    237      1      4     54       0.000           62.50    
    238      1      4     55       0.000           62.50    
    239      1      4     56       0.000           62.50    
    240      1      4     57       0.000           62.50    
    241      1      4     58       0.000           62.50    
    242      1      4     59       0.000           62.50    
    243      1      4     60       0.000           62.50    
    244      1      4     61       0.000           62.50    
    245      1      5      1       0.000           62.50    
    246      1      5      2       0.000           62.50    
    247      1      5      3       0.000           62.50    
    248      1      5      4       0.000           62.50    
    249      1      5      5       0.000           62.50    
    250      1      5      6       0.000           62.50    
    251      1      5      7       0.000           62.50    
    252      1      5      8       0.000           62.50    
    253      1      5      9       0.000           62.50    
    254      1      5     10       0.000           62.50    
    255      1      5     11       0.000           62.50    
    256      1      5     12       0.000           62.50    
    257      1      5     13       0.000           62.50    
    258      1      5     14       0.000           62.50    
    259      1      5     15       0.000           62.50    
    260      1      5     16       0.000           62.50    
    261      1      5     17       0.000           62.50    
    262      1      5     18       0.000           62.50    
    263      1      5     19       0.000           62.50    
    264      1      5     20       0.000           62.50    
    265      1      5     21       0.000           62.50    
    266      1      5     22       0.000           62.50    
    267      1      5     23       0.000           62.50    
    268      1      5     24       0.000           62.50    
    269      1      5     25       0.000           62.50    
    270      1      5     26       0.000           62.50    
    271      1      5     27       0.000           62.50    
    272      1      5     28       0.000           62.50    
    273      1      5     29       0.000           62.50    
    274      1      5     30       0.000           62.50    
    275      1      5     31       0.000           62.50    
    276      1      5     32       0.000           62.50    
    277      1      5     33       0.000           62.50    
    278      1      5     34       0.000           62.50    
    279      1      5     35       0.000           62.50    
    280      1      5     36       0.000           62.50    
    281      1      5     37       0.000           62.50    
    282      1      5     38       0.000           62.50    
    283      1      5     39       0.000           62.50    
    284      1      5     40       0.000           62.50    
    285      1      5     41       0.000           62.50    
    286      1      5     42       0.000           62.50    
    287      1      5     43       0.000           62.50    
    288      1      5     44       0.000           62.50    
    289      1      5     45       0.000           62.50    
    290      1      5     46       0.000           62.50    
    291      1      5     47       0.000           62.50    
    292      1      5     48       0.000           62.50    
    293      1      5     49       0.000           62.50    
    294      1      5     50       0.000           62.50    
    295      1      5     51       0.000           62.50    
    296      1      5     52       0.000           62.50    
    297      1      5     53       0.000           62.50    
    298      1      5     54       0.000           62.50    
    299      1      5     55       0.000           62.50    
    300      1      5     56       0.000           62.50    
    301      1      5     57       0.000           62.50    
    302      1      5     58       0.000           62.50    
    303      1      5     59       0.000           62.50    
    304      1      5     60       0.000           62.50    
    305      1      5     61       0.000           62.50    
    306      1      6      1       0.000           62.50    
    307      1      6      2       0.000           62.50    
    308      1      6      3       0.000           62.50    
    309      1      6      4       0.000           62.50    
    310      1      6      5       0.000           62.50    
    311      1      6      6       0.000           62.50    
    312      1      6      7       0.000           62.50    
    313      1      6      8       0.000           62.50    
    314      1      6      9       0.000           62.50    
    315      1      6     10       0.000           62.50    
    316      1      6     11       0.000           62.50    
    317      1      6     12       0.000           62.50    
    318      1      6     13       0.000           62.50    
    319      1      6     14       0.000           62.50    
    320      1      6     15       0.000           62.50    
    321      1      6     16       0.000           62.50    
    322      1      6     17       0.000           62.50    
    323      1      6     18       0.000           62.50    
    324      1      6     19       0.000           62.50    
    325      1      6     20       0.000           62.50    
    326      1      6     21       0.000           62.50    
    327      1      6     22       0.000           62.50    
    328      1      6     23       0.000           62.50    
    329      1      6     24       0.000           62.50    
    330      1      6     25       0.000           62.50    
    331      1      6     26       0.000           62.50    
    332      1      6     27       0.000           62.50    
    333      1      6     28       0.000           62.50    
    334      1      6     29       0.000           62.50    
    335      1      6     30       0.000           62.50    
    336      1      6     31       0.000           62.50    
    337      1      6     32       0.000           62.50    
    338      1      6     33       0.000           62.50    
    339      1      6     34       0.000           62.50    
    340      1      6     35       0.000           62.50    
    341      1      6     36       0.000           62.50    
    342      1      6     37       0.000           62.50    
    343      1      6     38       0.000           62.50    
    344      1      6     39       0.000           62.50    
    345      1      6     40       0.000           62.50    
    346      1      6     41       0.000           62.50    
    347      1      6     42       0.000           62.50    
    348      1      6     43       0.000           62.50    
    349      1      6     44       0.000           62.50    
    350      1      6     45       0.000           62.50    
    351      1      6     46       0.000           62.50    
    352      1      6     47       0.000           62.50    
    353      1      6     48       0.000           62.50    
    354      1      6     49       0.000           62.50    
    355      1      6     50       0.000           62.50    
    356      1      6     51       0.000           62.50    
    357      1      6     52       0.000           62.50    
    358      1      6     53       0.000           62.50    
    359      1      6     54       0.000           62.50    
    360      1      6     55       0.000           62.50    
    361      1      6     56       0.000           62.50    
    362      1      6     57       0.000           62.50    
    363      1      6     58       0.000           62.50    
    364      1      6     59       0.000           62.50    
    365      1      6     60       0.000           62.50    
    366      1      6     61       0.000           62.50    
    367      1      7      1       0.000           62.50    
    368      1      7      2       0.000           62.50    
    369      1      7      3       0.000           62.50    
    370      1      7      4       0.000           62.50    
    371      1      7      5       0.000           62.50    
    372      1      7      6       0.000           62.50    
    373      1      7      7       0.000           62.50    
    374      1      7      8       0.000           62.50    
    375      1      7      9       0.000           62.50    
    376      1      7     10       0.000           62.50    
    377      1      7     11       0.000           62.50    
    378      1      7     12       0.000           62.50    
    379      1      7     13       0.000           62.50    
    380      1      7     14       0.000           62.50    
    381      1      7     15       0.000           62.50    
    382      1      7     16       0.000           62.50    
    383      1      7     17       0.000           62.50    
    384      1      7     18       0.000           62.50    
    385      1      7     19       0.000           62.50    
    386      1      7     20       0.000           62.50    
    387      1      7     21       0.000           62.50    
    388      1      7     22       0.000           62.50    
    389      1      7     23       0.000           62.50    
    390      1      7     24       0.000           62.50    
    391      1      7     25       0.000           62.50    
    392      1      7     26       0.000           62.50    
    393      1      7     27       0.000           62.50    
    394      1      7     28       0.000           62.50    
    395      1      7     29       0.000           62.50    
    396      1      7     30       0.000           62.50    
    397      1      7     31       0.000           62.50    
    398      1      7     32       0.000           62.50    
    399      1      7     33       0.000           62.50    
    400      1      7     34       0.000           62.50    
    401      1      7     35       0.000           62.50    
    402      1      7     36       0.000           62.50    
    403      1      7     37       0.000           62.50    
    404      1      7     38       0.000           62.50    
    405      1      7     39       0.000           62.50    
    406      1      7     40       0.000           62.50    
    407      1      7     41       0.000           62.50    
    408      1      7     42       0.000           62.50    
    409      1      7     43       0.000           62.50    
    410      1      7     44       0.000           62.50    
    411      1      7     45       0.000           62.50    
    412      1      7     46       0.000           62.50    
    413      1      7     47       0.000           62.50    
    414      1      7     48       0.000           62.50    
    415      1      7     49       0.000           62.50    
    416      1      7     50       0.000           62.50    
    417      1      7     51       0.000           62.50    
    418      1      7     52       0.000           62.50    
    419      1      7     53       0.000           62.50    
    420      1      7     54       0.000           62.50    
    421      1      7     55       0.000           62.50    
    422      1      7     56       0.000           62.50    
    423      1      7     57       0.000           62.50    
    424      1      7     58       0.000           62.50    
    425      1      7     59       0.000           62.50    
    426      1      7     60       0.000           62.50    
    427      1      7     61       0.000           62.50    
    428      1      8      1       0.000           62.50    
    429      1      8      2       0.000           62.50    
    430      1      8      3       0.000           62.50    
    431      1      8      4       0.000           62.50    
    432      1      8      5       0.000           62.50    
    433      1      8      6       0.000           62.50    
    434      1      8      7       0.000           62.50    
    435      1      8      8       0.000           62.50    
    436      1      8      9       0.000           62.50    
    437      1      8     10       0.000           62.50    
    438      1      8     11       0.000           62.50    
    439      1      8     12       0.000           62.50    
    440      1      8     13       0.000           62.50    
    441      1      8     14       0.000           62.50    
    442      1      8     15       0.000           62.50    
    443      1      8     16       0.000           62.50    
    444      1      8     17       0.000           62.50    
    445      1      8     18       0.000           62.50    
    446      1      8     19       0.000           62.50    
    447      1      8     20       0.000           62.50    
    448      1      8     21       0.000           62.50    
    449      1      8     22       0.000           62.50    
    450      1      8     23       0.000           62.50    
    451      1      8     24       0.000           62.50    
    452      1      8     25       0.000           62.50    
    453      1      8     26       0.000           62.50    
    454      1      8     27       0.000           62.50    
    455      1      8     28       0.000           62.50    
    456      1      8     29       0.000           62.50    
    457      1      8     30       0.000           62.50    
    458      1      8     31       0.000           62.50    
    459      1      8     32       0.000           62.50    
    460      1      8     33       0.000           62.50    
    461      1      8     34       0.000           62.50    
    462      1      8     35       0.000           62.50    
    463      1      8     36       0.000           62.50    
    464      1      8     37       0.000           62.50    
    465      1      8     38       0.000           62.50    
    466      1      8     39       0.000           62.50    
    467      1      8     40       0.000           62.50    
    468      1      8     41       0.000           62.50    
    469      1      8     42       0.000           62.50    
    470      1      8     43       0.000           62.50    
    471      1      8     44       0.000           62.50    
    472      1      8     45       0.000           62.50    
    473      1      8     46       0.000           62.50    
    474      1      8     47       0.000           62.50    
    475      1      8     48       0.000           62.50    
    476      1      8     49       0.000           62.50    
    477      1      8     50       0.000           62.50    
    478      1      8     51       0.000           62.50    
    479      1      8     52       0.000           62.50    
    480      1      8     53       0.000           62.50    
    481      1      8     54       0.000           62.50    
    482      1      8     55       0.000           62.50    
    483      1      8     56       0.000           62.50    
    484      1      8     57       0.000           62.50    
    485      1      8     58       0.000           62.50    
    486      1      8     59       0.000           62.50    
    487      1      8     60       0.000           62.50    
    488      1      8     61       0.000           62.50    
    489      1      9      1       0.000           62.50    
    490      1      9      2       0.000           62.50    
    491      1      9      3       0.000           62.50    
    492      1      9      4       0.000           62.50    
    493      1      9      5       0.000           62.50    
    494      1      9      6       0.000           62.50    
    495      1      9      7       0.000           62.50    
    496      1      9      8       0.000           62.50    
    497      1      9      9       0.000           62.50    
    498      1      9     10       0.000           62.50    
    499      1      9     11       0.000           62.50    
    500      1      9     12       0.000           62.50    
    501      1      9     13       0.000           62.50    
    502      1      9     14       0.000           62.50    
    503      1      9     15       0.000           62.50    
    504      1      9     16       0.000           62.50    
    505      1      9     17       0.000           62.50    
    506      1      9     18       0.000           62.50    
    507      1      9     19       0.000           62.50    
    508      1      9     20       0.000           62.50    
    509      1      9     21       0.000           62.50    
    510      1      9     22       0.000           62.50    
    511      1      9     23       0.000           62.50    
    512      1      9     24       0.000           62.50    
    513      1      9     25       0.000           62.50    
    514      1      9     26       0.000           62.50    
    515      1      9     27       0.000           62.50    
    516      1      9     28       0.000           62.50    
    517      1      9     29       0.000           62.50    
    518      1      9     30       0.000           62.50    
    519      1      9     31       0.000           62.50    
    520      1      9     32       0.000           62.50    
    521      1      9     33       0.000           62.50    
    522      1      9     34       0.000           62.50    
    523      1      9     35       0.000           62.50    
    524      1      9     36       0.000           62.50    
    525      1      9     37       0.000           62.50    
    526      1      9     38       0.000           62.50    
    527      1      9     39       0.000           62.50    
    528      1      9     40       0.000           62.50    
    529      1      9     41       0.000           62.50    
    530      1      9     42       0.000           62.50    
    531      1      9     43       0.000           62.50    
    532      1      9     44       0.000           62.50    
    533      1      9     45       0.000           62.50    
    534      1      9     46       0.000           62.50    
    535      1      9     47       0.000           62.50    
    536      1      9     48       0.000           62.50    
    537      1      9     49       0.000           62.50    
    538      1      9     50       0.000           62.50    
    539      1      9     51       0.000           62.50    
    540      1      9     52       0.000           62.50    
    541      1      9     53       0.000           62.50    
    542      1      9     54       0.000           62.50    
    543      1      9     55       0.000           62.50    
    544      1      9     56       0.000           62.50    
    545      1      9     57       0.000           62.50    
    546      1      9     58       0.000           62.50    
    547      1      9     59       0.000           62.50    
    548      1      9     60       0.000           62.50    
    549      1      9     61       0.000           62.50    
    550      1     10      1       0.000           62.50    
    551      1     10      2       0.000           62.50    
    552      1     10      3       0.000           62.50    
    553      1     10      4       0.000           62.50    
    554      1     10      5       0.000           62.50    
    555      1     10      6       0.000           62.50    
    556      1     10      7       0.000           62.50    
    557      1     10      8       0.000           62.50    
    558      1     10      9       0.000           62.50    
    559      1     10     10       0.000           62.50    
    560      1     10     11       0.000           62.50    
    561      1     10     12       0.000           62.50    
    562      1     10     13       0.000           62.50    
    563      1     10     14       0.000           62.50    
    564      1     10     15       0.000           62.50    
    565      1     10     16       0.000           62.50    
    566      1     10     17       0.000           62.50    
    567      1     10     18       0.000           62.50    
    568      1     10     19       0.000           62.50    
    569      1     10     20       0.000           62.50    
    570      1     10     21       0.000           62.50    
    571      1     10     22       0.000           62.50    
    572      1     10     23       0.000           62.50    
    573      1     10     24       0.000           62.50    
    574      1     10     25       0.000           62.50    
    575      1     10     26       0.000           62.50    
    576      1     10     27       0.000           62.50    
    577      1     10     28       0.000           62.50    
    578      1     10     29       0.000           62.50    
    579      1     10     30       0.000           62.50    
    580      1     10     31       0.000           62.50    
    581      1     10     32       0.000           62.50    
    582      1     10     33       0.000           62.50    
    583      1     10     34       0.000           62.50    
    584      1     10     35       0.000           62.50    
    585      1     10     36       0.000           62.50    
    586      1     10     37       0.000           62.50    
    587      1     10     38       0.000           62.50    
    588      1     10     39       0.000           62.50    
    589      1     10     40       0.000           62.50    
    590      1     10     41       0.000           62.50    
    591      1     10     42       0.000           62.50    
    592      1     10     43       0.000           62.50    
    593      1     10     44       0.000           62.50    
    594      1     10     45       0.000           62.50    
    595      1     10     46       0.000           62.50    
    596      1     10     47       0.000           62.50    
    597      1     10     48       0.000           62.50    
    598      1     10     49       0.000           62.50    
    599      1     10     50       0.000           62.50    
    600      1     10     51       0.000           62.50    
    601      1     10     52       0.000           62.50    
    602      1     10     53       0.000           62.50    
    603      1     10     54       0.000           62.50    
    604      1     10     55       0.000           62.50    
    605      1     10     56       0.000           62.50    
    606      1     10     57       0.000           62.50    
    607      1     10     58       0.000           62.50    
    608      1     10     59       0.000           62.50    
    609      1     10     60       0.000           62.50    
    610      1     10     61       0.000           62.50    
    611      1     11      1       0.000           62.50    
    612      1     11      2       0.000           62.50    
    613      1     11      3       0.000           62.50    
    614      1     11      4       0.000           62.50    
    615      1     11      5       0.000           62.50    
    616      1     11      6       0.000           62.50    
    617      1     11      7       0.000           62.50    
    618      1     11      8       0.000           62.50    
    619      1     11      9       0.000           62.50    
    620      1     11     10       0.000           62.50    
    621      1     11     52       0.000           62.50    
    622      1     11     53       0.000           62.50    
    623      1     11     54       0.000           62.50    
    624      1     11     55       0.000           62.50    
    625      1     11     56       0.000           62.50    
    626      1     11     57       0.000           62.50    
    627      1     11     58       0.000           62.50    
    628      1     11     59       0.000           62.50    
    629      1     11     60       0.000           62.50    
    630      1     11     61       0.000           62.50    
    631      1     12      1       0.000           62.50    
    632      1     12      2       0.000           62.50    
    633      1     12      3       0.000           62.50    
    634      1     12      4       0.000           62.50    
    635      1     12      5       0.000           62.50    
    636      1     12      6       0.000           62.50    
    637      1     12      7       0.000           62.50    
    638      1     12      8       0.000           62.50    
    639      1     12      9       0.000           62.50    
    640      1     12     10       0.000           62.50    
    641      1     12     52       0.000           62.50    
    642      1     12     53       0.000           62.50    
    643      1     12     54       0.000           62.50    
    644      1     12     55       0.000           62.50    
    645      1     12     56       0.000           62.50    
    646      1     12     57       0.000           62.50    
    647      1     12     58       0.000           62.50    
    648      1     12     59       0.000           62.50    
    649      1     12     60       0.000           62.50    
    650      1     12     61       0.000           62.50    
    651      1     13      1       0.000           62.50    
    652      1     13      2       0.000           62.50    
    653      1     13      3       0.000           62.50    
    654      1     13      4       0.000           62.50    
    655      1     13      5       0.000           62.50    
    656      1     13      6       0.000           62.50    
    657      1     13      7       0.000           62.50    
    658      1     13      8       0.000           62.50    
    659      1     13      9       0.000           62.50    
    660      1     13     10       0.000           62.50    
    661      1     13     52       0.000           62.50    
    662      1     13     53       0.000           62.50    
    663      1     13     54       0.000           62.50    
    664      1     13     55       0.000           62.50    
    665      1     13     56       0.000           62.50    
    666      1     13     57       0.000           62.50    
    667      1     13     58       0.000           62.50    
    668      1     13     59       0.000           62.50    
    669      1     13     60       0.000           62.50    
    670      1     13     61       0.000           62.50    
    671      1     14      1       0.000           62.50    
    672      1     14      2       0.000           62.50    
    673      1     14      3       0.000           62.50    
    674      1     14      4       0.000           62.50    
    675      1     14      5       0.000           62.50    
    676      1     14      6       0.000           62.50    
    677      1     14      7       0.000           62.50    
    678      1     14      8       0.000           62.50    
    679      1     14      9       0.000           62.50    
    680      1     14     10       0.000           62.50    
    681      1     14     52       0.000           62.50    
    682      1     14     53       0.000           62.50    
    683      1     14     54       0.000           62.50    
    684      1     14     55       0.000           62.50    
    685      1     14     56       0.000           62.50    
    686      1     14     57       0.000           62.50    
    687      1     14     58       0.000           62.50    
    688      1     14     59       0.000           62.50    
    689      1     14     60       0.000           62.50    
    690      1     14     61       0.000           62.50    
    691      1     15      1       0.000           62.50    
    692      1     15      2       0.000           62.50    
    693      1     15      3       0.000           62.50    
    694      1     15      4       0.000           62.50    
    695      1     15      5       0.000           62.50    
    696      1     15      6       0.000           62.50    
    697      1     15      7       0.000           62.50    
    698      1     15      8       0.000           62.50    
    699      1     15      9       0.000           62.50    
    700      1     15     10       0.000           62.50    
    701      1     15     52       0.000           62.50    
    702      1     15     53       0.000           62.50    
    703      1     15     54       0.000           62.50    
    704      1     15     55       0.000           62.50    
    705      1     15     56       0.000           62.50    
    706      1     15     57       0.000           62.50    
    707      1     15     58       0.000           62.50    
    708      1     15     59       0.000           62.50    
    709      1     15     60       0.000           62.50    
    710      1     15     61       0.000           62.50    
    711      1     16      1       0.000           62.50    
    712      1     16      2       0.000           62.50    
    713      1     16      3       0.000           62.50    
    714      1     16      4       0.000           62.50    
    715      1     16      5       0.000           62.50    
    716      1     16      6       0.000           62.50    
    717      1     16      7       0.000           62.50    
    718      1     16      8       0.000           62.50    
    719      1     16      9       0.000           62.50    
    720      1     16     10       0.000           62.50    
    721      1     16     52       0.000           62.50    
    722      1     16     53       0.000           62.50    
    723      1     16     54       0.000           62.50    
    724      1     16     55       0.000           62.50    
    725      1     16     56       0.000           62.50    
    726      1     16     57       0.000           62.50    
    727      1     16     58       0.000           62.50    
    728      1     16     59       0.000           62.50    
    729      1     16     60       0.000           62.50    
    730      1     16     61       0.000           62.50    
    731      1     17      1       0.000           62.50    
    732      1     17      2       0.000           62.50    
    733      1     17      3       0.000           62.50    
    734      1     17      4       0.000           62.50    
    735      1     17      5       0.000           62.50    
    736      1     17      6       0.000           62.50    
    737      1     17      7       0.000           62.50    
    738      1     17      8       0.000           62.50    
    739      1     17      9       0.000           62.50    
    740      1     17     10       0.000           62.50    
    741      1     17     52       0.000           62.50    
    742      1     17     53       0.000           62.50    
    743      1     17     54       0.000           62.50    
    744      1     17     55       0.000           62.50    
    745      1     17     56       0.000           62.50    
    746      1     17     57       0.000           62.50    
    747      1     17     58       0.000           62.50    
    748      1     17     59       0.000           62.50    
    749      1     17     60       0.000           62.50    
    750      1     17     61       0.000           62.50    
    751      1     18      1       0.000           62.50    
    752      1     18      2       0.000           62.50    
    753      1     18      3       0.000           62.50    
    754      1     18      4       0.000           62.50    
    755      1     18      5       0.000           62.50    
    756      1     18      6       0.000           62.50    
    757      1     18      7       0.000           62.50    
    758      1     18      8       0.000           62.50    
    759      1     18      9       0.000           62.50    
    760      1     18     10       0.000           62.50    
    761      1     18     52       0.000           62.50    
    762      1     18     53       0.000           62.50    
    763      1     18     54       0.000           62.50    
    764      1     18     55       0.000           62.50    
    765      1     18     56       0.000           62.50    
    766      1     18     57       0.000           62.50    
    767      1     18     58       0.000           62.50    
    768      1     18     59       0.000           62.50    
    769      1     18     60       0.000           62.50    
    770      1     18     61       0.000           62.50    
    771      1     19      1       0.000           62.50    
    772      1     19      2       0.000           62.50    
    773      1     19      3       0.000           62.50    
    774      1     19      4       0.000           62.50    
    775      1     19      5       0.000           62.50    
    776      1     19      6       0.000           62.50    
    777      1     19      7       0.000           62.50    
    778      1     19      8       0.000           62.50    
    779      1     19      9       0.000           62.50    
    780      1     19     10       0.000           62.50    
    781      1     19     52       0.000           62.50    
    782      1     19     53       0.000           62.50    
    783      1     19     54       0.000           62.50    
    784      1     19     55       0.000           62.50    
    785      1     19     56       0.000           62.50    
    786      1     19     57       0.000           62.50    
    787      1     19     58       0.000           62.50    
    788      1     19     59       0.000           62.50    
    789      1     19     60       0.000           62.50    
    790      1     19     61       0.000           62.50    
    791      1     20      1       0.000           62.50    
    792      1     20      2       0.000           62.50    
    793      1     20      3       0.000           62.50    
    794      1     20      4       0.000           62.50    
    795      1     20      5       0.000           62.50    
    796      1     20      6       0.000           62.50    
    797      1     20      7       0.000           62.50    
    798      1     20      8       0.000           62.50    
    799      1     20      9       0.000           62.50    
    800      1     20     10       0.000           62.50    
    801      1     20     52       0.000           62.50    
    802      1     20     53       0.000           62.50    
    803      1     20     54       0.000           62.50    
    804      1     20     55       0.000           62.50    
    805      1     20     56       0.000           62.50    
    806      1     20     57       0.000           62.50    
    807      1     20     58       0.000           62.50    
    808      1     20     59       0.000           62.50    
    809      1     20     60       0.000           62.50    
    810      1     20     61       0.000           62.50    
    811      1     21      1       0.000           62.50    
    812      1     21      2       0.000           62.50    
    813      1     21      3       0.000           62.50    
    814      1     21      4       0.000           62.50    
    815      1     21      5       0.000           62.50    
    816      1     21      6       0.000           62.50    
    817      1     21      7       0.000           62.50    
    818      1     21      8       0.000           62.50    
    819      1     21      9       0.000           62.50    
    820      1     21     10       0.000           62.50    
    821      1     21     52       0.000           62.50    
    822      1     21     53       0.000           62.50    
    823      1     21     54       0.000           62.50    
    824      1     21     55       0.000           62.50    
    825      1     21     56       0.000           62.50    
    826      1     21     57       0.000           62.50    
    827      1     21     58       0.000           62.50    
    828      1     21     59       0.000           62.50    
    829      1     21     60       0.000           62.50    
    830      1     21     61       0.000           62.50    
    831      1     22      1       0.000           62.50    
    832      1     22      2       0.000           62.50    
    833      1     22      3       0.000           62.50    
    834      1     22      4       0.000           62.50    
    835      1     22      5       0.000           62.50    
    836      1     22      6       0.000           62.50    
    837      1     22      7       0.000           62.50    
    838      1     22      8       0.000           62.50    
    839      1     22      9       0.000           62.50    
    840      1     22     10       0.000           62.50    
    841      1     22     52       0.000           62.50    
    842      1     22     53       0.000           62.50    
    843      1     22     54       0.000           62.50    
    844      1     22     55       0.000           62.50    
    845      1     22     56       0.000           62.50    
    846      1     22     57       0.000           62.50    
    847      1     22     58       0.000           62.50    
    848      1     22     59       0.000           62.50    
    849      1     22     60       0.000           62.50    
    850      1     22     61       0.000           62.50    
    851      1     23      1       0.000           62.50    
    852      1     23      2       0.000           62.50    
    853      1     23      3       0.000           62.50    
    854      1     23      4       0.000           62.50    
    855      1     23      5       0.000           62.50    
    856      1     23      6       0.000           62.50    
    857      1     23      7       0.000           62.50    
    858      1     23      8       0.000           62.50    
    859      1     23      9       0.000           62.50    
    860      1     23     10       0.000           62.50    
    861      1     23     52       0.000           62.50    
    862      1     23     53       0.000           62.50    
    863      1     23     54       0.000           62.50    
    864      1     23     55       0.000           62.50    
    865      1     23     56       0.000           62.50    
    866      1     23     57       0.000           62.50    
    867      1     23     58       0.000           62.50    
    868      1     23     59       0.000           62.50    
    869      1     23     60       0.000           62.50    
    870      1     23     61       0.000           62.50    
    871      1     24      1       0.000           62.50    
    872      1     24      2       0.000           62.50    
    873      1     24      3       0.000           62.50    
    874      1     24      4       0.000           62.50    
    875      1     24      5       0.000           62.50    
    876      1     24      6       0.000           62.50    
    877      1     24      7       0.000           62.50    
    878      1     24      8       0.000           62.50    
    879      1     24      9       0.000           62.50    
    880      1     24     10       0.000           62.50    
    881      1     24     52       0.000           62.50    
    882      1     24     53       0.000           62.50    
    883      1     24     54       0.000           62.50    
    884      1     24     55       0.000           62.50    
    885      1     24     56       0.000           62.50    
    886      1     24     57       0.000           62.50    
    887      1     24     58       0.000           62.50    
    888      1     24     59       0.000           62.50    
    889      1     24     60       0.000           62.50    
    890      1     24     61       0.000           62.50    
    891      1     25      1       0.000           62.50    
    892      1     25      2       0.000           62.50    
    893      1     25      3       0.000           62.50    
    894      1     25      4       0.000           62.50    
    895      1     25      5       0.000           62.50    
    896      1     25      6       0.000           62.50    
    897      1     25      7       0.000           62.50    
    898      1     25      8       0.000           62.50    
    899      1     25      9       0.000           62.50    
    900      1     25     10       0.000           62.50    
    901      1     25     52       0.000           62.50    
    902      1     25     53       0.000           62.50    
    903      1     25     54       0.000           62.50    
    904      1     25     55       0.000           62.50    
    905      1     25     56       0.000           62.50    
    906      1     25     57       0.000           62.50    
    907      1     25     58       0.000           62.50    
    908      1     25     59       0.000           62.50    
    909      1     25     60       0.000           62.50    
    910      1     25     61       0.000           62.50    
    911      1     26      1       0.000           62.50    
    912      1     26      2       0.000           62.50    
    913      1     26      3       0.000           62.50    
    914      1     26      4       0.000           62.50    
    915      1     26      5       0.000           62.50    
    916      1     26      6       0.000           62.50    
    917      1     26      7       0.000           62.50    
    918      1     26      8       0.000           62.50    
    919      1     26      9       0.000           62.50    
    920      1     26     10       0.000           62.50    
    921      1     26     52       0.000           62.50    
    922      1     26     53       0.000           62.50    
    923      1     26     54       0.000           62.50    
    924      1     26     55       0.000           62.50    
    925      1     26     56       0.000           62.50    
    926      1     26     57       0.000           62.50    
    927      1     26     58       0.000           62.50    
    928      1     26     59       0.000           62.50    
    929      1     26     60       0.000           62.50    
    930      1     26     61       0.000           62.50    
    931      1     27      1       0.000           62.50    
    932      1     27      2       0.000           62.50    
    933      1     27      3       0.000           62.50    
    934      1     27      4       0.000           62.50    
    935      1     27      5       0.000           62.50    
    936      1     27      6       0.000           62.50    
    937      1     27      7       0.000           62.50    
    938      1     27      8       0.000           62.50    
    939      1     27      9       0.000           62.50    
    940      1     27     10       0.000           62.50    
    941      1     27     52       0.000           62.50    
    942      1     27     53       0.000           62.50    
    943      1     27     54       0.000           62.50    
    944      1     27     55       0.000           62.50    
    945      1     27     56       0.000           62.50    
    946      1     27     57       0.000           62.50    
    947      1     27     58       0.000           62.50    
    948      1     27     59       0.000           62.50    
    949      1     27     60       0.000           62.50    
    950      1     27     61       0.000           62.50    
    951      1     28      1       0.000           62.50    
    952      1     28      2       0.000           62.50    
    953      1     28      3       0.000           62.50    
    954      1     28      4       0.000           62.50    
    955      1     28      5       0.000           62.50    
    956      1     28      6       0.000           62.50    
    957      1     28      7       0.000           62.50    
    958      1     28      8       0.000           62.50    
    959      1     28      9       0.000           62.50    
    960      1     28     10       0.000           62.50    
    961      1     28     52       0.000           62.50    
    962      1     28     53       0.000           62.50    
    963      1     28     54       0.000           62.50    
    964      1     28     55       0.000           62.50    
    965      1     28     56       0.000           62.50    
    966      1     28     57       0.000           62.50    
    967      1     28     58       0.000           62.50    
    968      1     28     59       0.000           62.50    
    969      1     28     60       0.000           62.50    
    970      1     28     61       0.000           62.50    
    971      1     29      1       0.000           62.50    
    972      1     29      2       0.000           62.50    
    973      1     29      3       0.000           62.50    
    974      1     29      4       0.000           62.50    
    975      1     29      5       0.000           62.50    
    976      1     29      6       0.000           62.50    
    977      1     29      7       0.000           62.50    
    978      1     29      8       0.000           62.50    
    979      1     29      9       0.000           62.50    
    980      1     29     10       0.000           62.50    
    981      1     29     52       0.000           62.50    
    982      1     29     53       0.000           62.50    
    983      1     29     54       0.000           62.50    
    984      1     29     55       0.000           62.50    
    985      1     29     56       0.000           62.50    
    986      1     29     57       0.000           62.50    
    987      1     29     58       0.000           62.50    
    988      1     29     59       0.000           62.50    
    989      1     29     60       0.000           62.50    
    990      1     29     61       0.000           62.50    
    991      1     30      1       0.000           62.50    
    992      1     30      2       0.000           62.50    
    993      1     30      3       0.000           62.50    
    994      1     30      4       0.000           62.50    
    995      1     30      5       0.000           62.50    
    996      1     30      6       0.000           62.50    
    997      1     30      7       0.000           62.50    
    998      1     30      8       0.000           62.50    
    999      1     30      9       0.000           62.50    
   1000      1     30     10       0.000           62.50    
   1001      1     30     52       0.000           62.50    
   1002      1     30     53       0.000           62.50    
   1003      1     30     54       0.000           62.50    
   1004      1     30     55       0.000           62.50    
   1005      1     30     56       0.000           62.50    
   1006      1     30     57       0.000           62.50    
   1007      1     30     58       0.000           62.50    
   1008      1     30     59       0.000           62.50    
   1009      1     30     60       0.000           62.50    
   1010      1     30     61       0.000           62.50    
   1011      1     31      1       0.000           62.50    
   1012      1     31      2       0.000           62.50    
   1013      1     31      3       0.000           62.50    
   1014      1     31      4       0.000           62.50    
   1015      1     31      5       0.000           62.50    
   1016      1     31      6       0.000           62.50    
   1017      1     31      7       0.000           62.50    
   1018      1     31      8       0.000           62.50    
   1019      1     31      9       0.000           62.50    
   1020      1     31     10       0.000           62.50    
   1021      1     31     52       0.000           62.50    
   1022      1     31     53       0.000           62.50    
   1023      1     31     54       0.000           62.50    
   1024      1     31     55       0.000           62.50    
   1025      1     31     56       0.000           62.50    
   1026      1     31     57       0.000           62.50    
   1027      1     31     58       0.000           62.50    
   1028      1     31     59       0.000           62.50    
   1029      1     31     60       0.000           62.50    
   1030      1     31     61       0.000           62.50    
   1031      1     32      1       0.000           62.50    
   1032      1     32      2       0.000           62.50    
   1033      1     32      3       0.000           62.50    
   1034      1     32      4       0.000           62.50    
   1035      1     32      5       0.000           62.50    
   1036      1     32      6       0.000           62.50    
   1037      1     32      7       0.000           62.50    
   1038      1     32      8       0.000           62.50    
   1039      1     32      9       0.000           62.50    
   1040      1     32     10       0.000           62.50    
   1041      1     32     52       0.000           62.50    
   1042      1     32     53       0.000           62.50    
   1043      1     32     54       0.000           62.50    
   1044      1     32     55       0.000           62.50    
   1045      1     32     56       0.000           62.50    
   1046      1     32     57       0.000           62.50    
   1047      1     32     58       0.000           62.50    
   1048      1     32     59       0.000           62.50    
   1049      1     32     60       0.000           62.50    
   1050      1     32     61       0.000           62.50    
   1051      1     33      1       0.000           62.50    
   1052      1     33      2       0.000           62.50    
   1053      1     33      3       0.000           62.50    
   1054      1     33      4       0.000           62.50    
   1055      1     33      5       0.000           62.50    
   1056      1     33      6       0.000           62.50    
   1057      1     33      7       0.000           62.50    
   1058      1     33      8       0.000           62.50    
   1059      1     33      9       0.000           62.50    
   1060      1     33     10       0.000           62.50    
   1061      1     33     52       0.000           62.50    
   1062      1     33     53       0.000           62.50    
   1063      1     33     54       0.000           62.50    
   1064      1     33     55       0.000           62.50    
   1065      1     33     56       0.000           62.50    
   1066      1     33     57       0.000           62.50    
   1067      1     33     58       0.000           62.50    
   1068      1     33     59       0.000           62.50    
   1069      1     33     60       0.000           62.50    
   1070      1     33     61       0.000           62.50    
   1071      1     34      1       0.000           62.50    
   1072      1     34      2       0.000           62.50    
   1073      1     34      3       0.000           62.50    
   1074      1     34      4       0.000           62.50    
   1075      1     34      5       0.000           62.50    
   1076      1     34      6       0.000           62.50    
   1077      1     34      7       0.000           62.50    
   1078      1     34      8       0.000           62.50    
   1079      1     34      9       0.000           62.50    
   1080      1     34     10       0.000           62.50    
   1081      1     34     52       0.000           62.50    
   1082      1     34     53       0.000           62.50    
   1083      1     34     54       0.000           62.50    
   1084      1     34     55       0.000           62.50    
   1085      1     34     56       0.000           62.50    
   1086      1     34     57       0.000           62.50    
   1087      1     34     58       0.000           62.50    
   1088      1     34     59       0.000           62.50    
   1089      1     34     60       0.000           62.50    
   1090      1     34     61       0.000           62.50    
   1091      1     35      1       0.000           62.50    
   1092      1     35      2       0.000           62.50    
   1093      1     35      3       0.000           62.50    
   1094      1     35      4       0.000           62.50    
   1095      1     35      5       0.000           62.50    
   1096      1     35      6       0.000           62.50    
   1097      1     35      7       0.000           62.50    
   1098      1     35      8       0.000           62.50    
   1099      1     35      9       0.000           62.50    
   1100      1     35     10       0.000           62.50    
   1101      1     35     52       0.000           62.50    
   1102      1     35     53       0.000           62.50    
   1103      1     35     54       0.000           62.50    
   1104      1     35     55       0.000           62.50    
   1105      1     35     56       0.000           62.50    
   1106      1     35     57       0.000           62.50    
   1107      1     35     58       0.000           62.50    
   1108      1     35     59       0.000           62.50    
   1109      1     35     60       0.000           62.50    
   1110      1     35     61       0.000           62.50    
   1111      1     36      1       0.000           62.50    
   1112      1     36      2       0.000           62.50    
   1113      1     36      3       0.000           62.50    
   1114      1     36      4       0.000           62.50    
   1115      1     36      5       0.000           62.50    
   1116      1     36      6       0.000           62.50    
   1117      1     36      7       0.000           62.50    
   1118      1     36      8       0.000           62.50    
   1119      1     36      9       0.000           62.50    
   1120      1     36     10       0.000           62.50    
   1121      1     36     52       0.000           62.50    
   1122      1     36     53       0.000           62.50    
   1123      1     36     54       0.000           62.50    
   1124      1     36     55       0.000           62.50    
   1125      1     36     56       0.000           62.50    
   1126      1     36     57       0.000           62.50    
   1127      1     36     58       0.000           62.50    
   1128      1     36     59       0.000           62.50    
   1129      1     36     60       0.000           62.50    
   1130      1     36     61       0.000           62.50    
   1131      1     37      1       0.000           62.50    
   1132      1     37      2       0.000           62.50    
   1133      1     37      3       0.000           62.50    
   1134      1     37      4       0.000           62.50    
   1135      1     37      5       0.000           62.50    
   1136      1     37      6       0.000           62.50    
   1137      1     37      7       0.000           62.50    
   1138      1     37      8       0.000           62.50    
   1139      1     37      9       0.000           62.50    
   1140      1     37     10       0.000           62.50    
   1141      1     37     52       0.000           62.50    
   1142      1     37     53       0.000           62.50    
   1143      1     37     54       0.000           62.50    
   1144      1     37     55       0.000           62.50    
   1145      1     37     56       0.000           62.50    
   1146      1     37     57       0.000           62.50    
   1147      1     37     58       0.000           62.50    
   1148      1     37     59       0.000           62.50    
   1149      1     37     60       0.000           62.50    
   1150      1     37     61       0.000           62.50    
   1151      1     38      1       0.000           62.50    
   1152      1     38      2       0.000           62.50    
   1153      1     38      3       0.000           62.50    
   1154      1     38      4       0.000           62.50    
   1155      1     38      5       0.000           62.50    
   1156      1     38      6       0.000           62.50    
   1157      1     38      7       0.000           62.50    
   1158      1     38      8       0.000           62.50    
   1159      1     38      9       0.000           62.50    
   1160      1     38     10       0.000           62.50    
   1161      1     38     52       0.000           62.50    
   1162      1     38     53       0.000           62.50    
   1163      1     38     54       0.000           62.50    
   1164      1     38     55       0.000           62.50    
   1165      1     38     56       0.000           62.50    
   1166      1     38     57       0.000           62.50    
   1167      1     38     58       0.000           62.50    
   1168      1     38     59       0.000           62.50    
   1169      1     38     60       0.000           62.50    
   1170      1     38     61       0.000           62.50    
   1171      1     39      1       0.000           62.50    
   1172      1     39      2       0.000           62.50    
   1173      1     39      3       0.000           62.50    
   1174      1     39      4       0.000           62.50    
   1175      1     39      5       0.000           62.50    
   1176      1     39      6       0.000           62.50    
   1177      1     39      7       0.000           62.50    
   1178      1     39      8       0.000           62.50    
   1179      1     39      9       0.000           62.50    
   1180      1     39     10       0.000           62.50    
   1181      1     39     52       0.000           62.50    
   1182      1     39     53       0.000           62.50    
   1183      1     39     54       0.000           62.50    
   1184      1     39     55       0.000           62.50    
   1185      1     39     56       0.000           62.50    
   1186      1     39     57       0.000           62.50    
   1187      1     39     58       0.000           62.50    
   1188      1     39     59       0.000           62.50    
   1189      1     39     60       0.000           62.50    
   1190      1     39     61       0.000           62.50    
   1191      1     40      1       0.000           62.50    
   1192      1     40      2       0.000           62.50    
   1193      1     40      3       0.000           62.50    
   1194      1     40      4       0.000           62.50    
   1195      1     40      5       0.000           62.50    
   1196      1     40      6       0.000           62.50    
   1197      1     40      7       0.000           62.50    
   1198      1     40      8       0.000           62.50    
   1199      1     40      9       0.000           62.50    
   1200      1     40     10       0.000           62.50    
   1201      1     40     52       0.000           62.50    
   1202      1     40     53       0.000           62.50    
   1203      1     40     54       0.000           62.50    
   1204      1     40     55       0.000           62.50    
   1205      1     40     56       0.000           62.50    
   1206      1     40     57       0.000           62.50    
   1207      1     40     58       0.000           62.50    
   1208      1     40     59       0.000           62.50    
   1209      1     40     60       0.000           62.50    
   1210      1     40     61       0.000           62.50    
   1211      1     41      1       0.000           62.50    
   1212      1     41      2       0.000           62.50    
   1213      1     41      3       0.000           62.50    
   1214      1     41      4       0.000           62.50    
   1215      1     41      5       0.000           62.50    
   1216      1     41      6       0.000           62.50    
   1217      1     41      7       0.000           62.50    
   1218      1     41      8       0.000           62.50    
   1219      1     41      9       0.000           62.50    
   1220      1     41     10       0.000           62.50    
   1221      1     41     52       0.000           62.50    
   1222      1     41     53       0.000           62.50    
   1223      1     41     54       0.000           62.50    
   1224      1     41     55       0.000           62.50    
   1225      1     41     56       0.000           62.50    
   1226      1     41     57       0.000           62.50    
   1227      1     41     58       0.000           62.50    
   1228      1     41     59       0.000           62.50    
   1229      1     41     60       0.000           62.50    
   1230      1     41     61       0.000           62.50    
   1231      1     42      1       0.000           62.50    
   1232      1     42      2       0.000           62.50    
   1233      1     42      3       0.000           62.50    
   1234      1     42      4       0.000           62.50    
   1235      1     42      5       0.000           62.50    
   1236      1     42      6       0.000           62.50    
   1237      1     42      7       0.000           62.50    
   1238      1     42      8       0.000           62.50    
   1239      1     42      9       0.000           62.50    
   1240      1     42     10       0.000           62.50    
   1241      1     42     52       0.000           62.50    
   1242      1     42     53       0.000           62.50    
   1243      1     42     54       0.000           62.50    
   1244      1     42     55       0.000           62.50    
   1245      1     42     56       0.000           62.50    
   1246      1     42     57       0.000           62.50    
   1247      1     42     58       0.000           62.50    
   1248      1     42     59       0.000           62.50    
   1249      1     42     60       0.000           62.50    
   1250      1     42     61       0.000           62.50    
   1251      1     43      1       0.000           62.50    
   1252      1     43      2       0.000           62.50    
   1253      1     43      3       0.000           62.50    
   1254      1     43      4       0.000           62.50    
   1255      1     43      5       0.000           62.50    
   1256      1     43      6       0.000           62.50    
   1257      1     43      7       0.000           62.50    
   1258      1     43      8       0.000           62.50    
   1259      1     43      9       0.000           62.50    
   1260      1     43     10       0.000           62.50    
   1261      1     43     52       0.000           62.50    
   1262      1     43     53       0.000           62.50    
   1263      1     43     54       0.000           62.50    
   1264      1     43     55       0.000           62.50    
   1265      1     43     56       0.000           62.50    
   1266      1     43     57       0.000           62.50    
   1267      1     43     58       0.000           62.50    
   1268      1     43     59       0.000           62.50    
   1269      1     43     60       0.000           62.50    
   1270      1     43     61       0.000           62.50    
   1271      1     44      1       0.000           62.50    
   1272      1     44      2       0.000           62.50    
   1273      1     44      3       0.000           62.50    
   1274      1     44      4       0.000           62.50    
   1275      1     44      5       0.000           62.50    
   1276      1     44      6       0.000           62.50    
   1277      1     44      7       0.000           62.50    
   1278      1     44      8       0.000           62.50    
   1279      1     44      9       0.000           62.50    
   1280      1     44     10       0.000           62.50    
   1281      1     44     52       0.000           62.50    
   1282      1     44     53       0.000           62.50    
   1283      1     44     54       0.000           62.50    
   1284      1     44     55       0.000           62.50    
   1285      1     44     56       0.000           62.50    
   1286      1     44     57       0.000           62.50    
   1287      1     44     58       0.000           62.50    
   1288      1     44     59       0.000           62.50    
   1289      1     44     60       0.000           62.50    
   1290      1     44     61       0.000           62.50    
   1291      1     45      1       0.000           62.50    
   1292      1     45      2       0.000           62.50    
   1293      1     45      3       0.000           62.50    
   1294      1     45      4       0.000           62.50    
   1295      1     45      5       0.000           62.50    
   1296      1     45      6       0.000           62.50    
   1297      1     45      7       0.000           62.50    
   1298      1     45      8       0.000           62.50    
   1299      1     45      9       0.000           62.50    
   1300      1     45     10       0.000           62.50    
   1301      1     45     52       0.000           62.50    
   1302      1     45     53       0.000           62.50    
   1303      1     45     54       0.000           62.50    
   1304      1     45     55       0.000           62.50    
   1305      1     45     56       0.000           62.50    
   1306      1     45     57       0.000           62.50    
   1307      1     45     58       0.000           62.50    
   1308      1     45     59       0.000           62.50    
   1309      1     45     60       0.000           62.50    
   1310      1     45     61       0.000           62.50    
   1311      1     46      1       0.000           62.50    
   1312      1     46      2       0.000           62.50    
   1313      1     46      3       0.000           62.50    
   1314      1     46      4       0.000           62.50    
   1315      1     46      5       0.000           62.50    
   1316      1     46      6       0.000           62.50    
   1317      1     46      7       0.000           62.50    
   1318      1     46      8       0.000           62.50    
   1319      1     46      9       0.000           62.50    
   1320      1     46     10       0.000           62.50    
   1321      1     46     52       0.000           62.50    
   1322      1     46     53       0.000           62.50    
   1323      1     46     54       0.000           62.50    
   1324      1     46     55       0.000           62.50    
   1325      1     46     56       0.000           62.50    
   1326      1     46     57       0.000           62.50    
   1327      1     46     58       0.000           62.50    
   1328      1     46     59       0.000           62.50    
   1329      1     46     60       0.000           62.50    
   1330      1     46     61       0.000           62.50    
   1331      1     47      1       0.000           62.50    
   1332      1     47      2       0.000           62.50    
   1333      1     47      3       0.000           62.50    
   1334      1     47      4       0.000           62.50    
   1335      1     47      5       0.000           62.50    
   1336      1     47      6       0.000           62.50    
   1337      1     47      7       0.000           62.50    
   1338      1     47      8       0.000           62.50    
   1339      1     47      9       0.000           62.50    
   1340      1     47     10       0.000           62.50    
   1341      1     47     52       0.000           62.50    
   1342      1     47     53       0.000           62.50    
   1343      1     47     54       0.000           62.50    
   1344      1     47     55       0.000           62.50    
   1345      1     47     56       0.000           62.50    
   1346      1     47     57       0.000           62.50    
   1347      1     47     58       0.000           62.50    
   1348      1     47     59       0.000           62.50    
   1349      1     47     60       0.000           62.50    
   1350      1     47     61       0.000           62.50    
   1351      1     48      1       0.000           62.50    
   1352      1     48      2       0.000           62.50    
   1353      1     48      3       0.000           62.50    
   1354      1     48      4       0.000           62.50    
   1355      1     48      5       0.000           62.50    
   1356      1     48      6       0.000           62.50    
   1357      1     48      7       0.000           62.50    
   1358      1     48      8       0.000           62.50    
   1359      1     48      9       0.000           62.50    
   1360      1     48     10       0.000           62.50    
   1361      1     48     52       0.000           62.50    
   1362      1     48     53       0.000           62.50    
   1363      1     48     54       0.000           62.50    
   1364      1     48     55       0.000           62.50    
   1365      1     48     56       0.000           62.50    
   1366      1     48     57       0.000           62.50    
   1367      1     48     58       0.000           62.50    
   1368      1     48     59       0.000           62.50    
   1369      1     48     60       0.000           62.50    
   1370      1     48     61       0.000           62.50    
   1371      1     49      1       0.000           62.50    
   1372      1     49      2       0.000           62.50    
   1373      1     49      3       0.000           62.50    
   1374      1     49      4       0.000           62.50    
   1375      1     49      5       0.000           62.50    
   1376      1     49      6       0.000           62.50    
   1377      1     49      7       0.000           62.50    
   1378      1     49      8       0.000           62.50    
   1379      1     49      9       0.000           62.50    
   1380      1     49     10       0.000           62.50    
   1381      1     49     52       0.000           62.50    
   1382      1     49     53       0.000           62.50    
   1383      1     49     54       0.000           62.50    
   1384      1     49     55       0.000           62.50    
   1385      1     49     56       0.000           62.50    
   1386      1     49     57       0.000           62.50    
   1387      1     49     58       0.000           62.50    
   1388      1     49     59       0.000           62.50    
   1389      1     49     60       0.000           62.50    
   1390      1     49     61       0.000           62.50    
   1391      1     50      1       0.000           62.50    
   1392      1     50      2       0.000           62.50    
   1393      1     50      3       0.000           62.50    
   1394      1     50      4       0.000           62.50    
   1395      1     50      5       0.000           62.50    
   1396      1     50      6       0.000           62.50    
   1397      1     50      7       0.000           62.50    
   1398      1     50      8       0.000           62.50    
   1399      1     50      9       0.000           62.50    
   1400      1     50     10       0.000           62.50    
   1401      1     50     52       0.000           62.50    
   1402      1     50     53       0.000           62.50    
   1403      1     50     54       0.000           62.50    
   1404      1     50     55       0.000           62.50    
   1405      1     50     56       0.000           62.50    
   1406      1     50     57       0.000           62.50    
   1407      1     50     58       0.000           62.50    
   1408      1     50     59       0.000           62.50    
   1409      1     50     60       0.000           62.50    
   1410      1     50     61       0.000           62.50    
   1411      1     51      1       0.000           62.50    
   1412      1     51      2       0.000           62.50    
   1413      1     51      3       0.000           62.50    
   1414      1     51      4       0.000           62.50    
   1415      1     51      5       0.000           62.50    
   1416      1     51      6       0.000           62.50    
   1417      1     51      7       0.000           62.50    
   1418      1     51      8       0.000           62.50    
   1419      1     51      9       0.000           62.50    
   1420      1     51     10       0.000           62.50    
   1421      1     51     52       0.000           62.50    
   1422      1     51     53       0.000           62.50    
   1423      1     51     54       0.000           62.50    
   1424      1     51     55       0.000           62.50    
   1425      1     51     56       0.000           62.50    
   1426      1     51     57       0.000           62.50    
   1427      1     51     58       0.000           62.50    
   1428      1     51     59       0.000           62.50    
   1429      1     51     60       0.000           62.50    
   1430      1     51     61       0.000           62.50    
   1431      1     52      1       0.000           62.50    
   1432      1     52      2       0.000           62.50    
   1433      1     52      3       0.000           62.50    
   1434      1     52      4       0.000           62.50    
   1435      1     52      5       0.000           62.50    
   1436      1     52      6       0.000           62.50    
   1437      1     52      7       0.000           62.50    
   1438      1     52      8       0.000           62.50    
   1439      1     52      9       0.000           62.50    
   1440      1     52     10       0.000           62.50    
   1441      1     52     11       0.000           62.50    
   1442      1     52     12       0.000           62.50    
   1443      1     52     13       0.000           62.50    
   1444      1     52     14       0.000           62.50    
   1445      1     52     15       0.000           62.50    
   1446      1     52     16       0.000           62.50    
   1447      1     52     17       0.000           62.50    
   1448      1     52     18       0.000           62.50    
   1449      1     52     19       0.000           62.50    
   1450      1     52     20       0.000           62.50    
   1451      1     52     21       0.000           62.50    
   1452      1     52     22       0.000           62.50    
   1453      1     52     23       0.000           62.50    
   1454      1     52     24       0.000           62.50    
   1455      1     52     25       0.000           62.50    
   1456      1     52     26       0.000           62.50    
   1457      1     52     27       0.000           62.50    
   1458      1     52     28       0.000           62.50    
   1459      1     52     29       0.000           62.50    
   1460      1     52     30       0.000           62.50    
   1461      1     52     31       0.000           62.50    
   1462      1     52     32       0.000           62.50    
   1463      1     52     33       0.000           62.50    
   1464      1     52     34       0.000           62.50    
   1465      1     52     35       0.000           62.50    
   1466      1     52     36       0.000           62.50    
   1467      1     52     37       0.000           62.50    
   1468      1     52     38       0.000           62.50    
   1469      1     52     39       0.000           62.50    
   1470      1     52     40       0.000           62.50    
   1471      1     52     41       0.000           62.50    
   1472      1     52     42       0.000           62.50    
   1473      1     52     43       0.000           62.50    
   1474      1     52     44       0.000           62.50    
   1475      1     52     45       0.000           62.50    
   1476      1     52     46       0.000           62.50    
   1477      1     52     47       0.000           62.50    
   1478      1     52     48       0.000           62.50    
   1479      1     52     49       0.000           62.50    
   1480      1     52     50       0.000           62.50    
   1481      1     52     51       0.000           62.50    
   1482      1     52     52       0.000           62.50    
   1483      1     52     53       0.000           62.50    
   1484      1     52     54       0.000           62.50    
   1485      1     52     55       0.000           62.50    
   1486      1     52     56       0.000           62.50    
   1487      1     52     57       0.000           62.50    
   1488      1     52     58       0.000           62.50    
   1489      1     52     59       0.000           62.50    
   1490      1     52     60       0.000           62.50    
   1491      1     52     61       0.000           62.50    
   1492      1     53      1       0.000           62.50    
   1493      1     53      2       0.000           62.50    
   1494      1     53      3       0.000           62.50    
   1495      1     53      4       0.000           62.50    
   1496      1     53      5       0.000           62.50    
   1497      1     53      6       0.000           62.50    
   1498      1     53      7       0.000           62.50    
   1499      1     53      8       0.000           62.50    
   1500      1     53      9       0.000           62.50    
   1501      1     53     10       0.000           62.50    
   1502      1     53     11       0.000           62.50    
   1503      1     53     12       0.000           62.50    
   1504      1     53     13       0.000           62.50    
   1505      1     53     14       0.000           62.50    
   1506      1     53     15       0.000           62.50    
   1507      1     53     16       0.000           62.50    
   1508      1     53     17       0.000           62.50    
   1509      1     53     18       0.000           62.50    
   1510      1     53     19       0.000           62.50    
   1511      1     53     20       0.000           62.50    
   1512      1     53     21       0.000           62.50    
   1513      1     53     22       0.000           62.50    
   1514      1     53     23       0.000           62.50    
   1515      1     53     24       0.000           62.50    
   1516      1     53     25       0.000           62.50    
   1517      1     53     26       0.000           62.50    
   1518      1     53     27       0.000           62.50    
   1519      1     53     28       0.000           62.50    
   1520      1     53     29       0.000           62.50    
   1521      1     53     30       0.000           62.50    
   1522      1     53     31       0.000           62.50    
   1523      1     53     32       0.000           62.50    
   1524      1     53     33       0.000           62.50    
   1525      1     53     34       0.000           62.50    
   1526      1     53     35       0.000           62.50    
   1527      1     53     36       0.000           62.50    
   1528      1     53     37       0.000           62.50    
   1529      1     53     38       0.000           62.50    
   1530      1     53     39       0.000           62.50    
   1531      1     53     40       0.000           62.50    
   1532      1     53     41       0.000           62.50    
   1533      1     53     42       0.000           62.50    
   1534      1     53     43       0.000           62.50    
   1535      1     53     44       0.000           62.50    
   1536      1     53     45       0.000           62.50    
   1537      1     53     46       0.000           62.50    
   1538      1     53     47       0.000           62.50    
   1539      1     53     48       0.000           62.50    
   1540      1     53     49       0.000           62.50    
   1541      1     53     50       0.000           62.50    
   1542      1     53     51       0.000           62.50    
   1543      1     53     52       0.000           62.50    
   1544      1     53     53       0.000           62.50    
   1545      1     53     54       0.000           62.50    
   1546      1     53     55       0.000           62.50    
   1547      1     53     56       0.000           62.50    
   1548      1     53     57       0.000           62.50    
   1549      1     53     58       0.000           62.50    
   1550      1     53     59       0.000           62.50    
   1551      1     53     60       0.000           62.50    
   1552      1     53     61       0.000           62.50    
   1553      1     54      1       0.000           62.50    
   1554      1     54      2       0.000           62.50    
   1555      1     54      3       0.000           62.50    
   1556      1     54      4       0.000           62.50    
   1557      1     54      5       0.000           62.50    
   1558      1     54      6       0.000           62.50    
   1559      1     54      7       0.000           62.50    
   1560      1     54      8       0.000           62.50    
   1561      1     54      9       0.000           62.50    
   1562      1     54     10       0.000           62.50    
   1563      1     54     11       0.000           62.50    
   1564      1     54     12       0.000           62.50    
   1565      1     54     13       0.000           62.50    
   1566      1     54     14       0.000           62.50    
   1567      1     54     15       0.000           62.50    
   1568      1     54     16       0.000           62.50    
   1569      1     54     17       0.000           62.50    
   1570      1     54     18       0.000           62.50    
   1571      1     54     19       0.000           62.50    
   1572      1     54     20       0.000           62.50    
   1573      1     54     21       0.000           62.50    
   1574      1     54     22       0.000           62.50    
   1575      1     54     23       0.000           62.50    
   1576      1     54     24       0.000           62.50    
   1577      1     54     25       0.000           62.50    
   1578      1     54     26       0.000           62.50    
   1579      1     54     27       0.000           62.50    
   1580      1     54     28       0.000           62.50    
   1581      1     54     29       0.000           62.50    
   1582      1     54     30       0.000           62.50    
   1583      1     54     31       0.000           62.50    
   1584      1     54     32       0.000           62.50    
   1585      1     54     33       0.000           62.50    
   1586      1     54     34       0.000           62.50    
   1587      1     54     35       0.000           62.50    
   1588      1     54     36       0.000           62.50    
   1589      1     54     37       0.000           62.50    
   1590      1     54     38       0.000           62.50    
   1591      1     54     39       0.000           62.50    
   1592      1     54     40       0.000           62.50    
   1593      1     54     41       0.000           62.50    
   1594      1     54     42       0.000           62.50    
   1595      1     54     43       0.000           62.50    
   1596      1     54     44       0.000           62.50    
   1597      1     54     45       0.000           62.50    
   1598      1     54     46       0.000           62.50    
   1599      1     54     47       0.000           62.50    
   1600      1     54     48       0.000           62.50    
   1601      1     54     49       0.000           62.50    
   1602      1     54     50       0.000           62.50    
   1603      1     54     51       0.000           62.50    
   1604      1     54     52       0.000           62.50    
   1605      1     54     53       0.000           62.50    
   1606      1     54     54       0.000           62.50    
   1607      1     54     55       0.000           62.50    
   1608      1     54     56       0.000           62.50    
   1609      1     54     57       0.000           62.50    
   1610      1     54     58       0.000           62.50    
   1611      1     54     59       0.000           62.50    
   1612      1     54     60       0.000           62.50    
   1613      1     54     61       0.000           62.50    
   1614      1     55      1       0.000           62.50    
   1615      1     55      2       0.000           62.50    
   1616      1     55      3       0.000           62.50    
   1617      1     55      4       0.000           62.50    
   1618      1     55      5       0.000           62.50    
   1619      1     55      6       0.000           62.50    
   1620      1     55      7       0.000           62.50    
   1621      1     55      8       0.000           62.50    
   1622      1     55      9       0.000           62.50    
   1623      1     55     10       0.000           62.50    
   1624      1     55     11       0.000           62.50    
   1625      1     55     12       0.000           62.50    
   1626      1     55     13       0.000           62.50    
   1627      1     55     14       0.000           62.50    
   1628      1     55     15       0.000           62.50    
   1629      1     55     16       0.000           62.50    
   1630      1     55     17       0.000           62.50    
   1631      1     55     18       0.000           62.50    
   1632      1     55     19       0.000           62.50    
   1633      1     55     20       0.000           62.50    
   1634      1     55     21       0.000           62.50    
   1635      1     55     22       0.000           62.50    
   1636      1     55     23       0.000           62.50    
   1637      1     55     24       0.000           62.50    
   1638      1     55     25       0.000           62.50    
   1639      1     55     26       0.000           62.50    
   1640      1     55     27       0.000           62.50    
   1641      1     55     28       0.000           62.50    
   1642      1     55     29       0.000           62.50    
   1643      1     55     30       0.000           62.50    
   1644      1     55     31       0.000           62.50    
   1645      1     55     32       0.000           62.50    
   1646      1     55     33       0.000           62.50    
   1647      1     55     34       0.000           62.50    
   1648      1     55     35       0.000           62.50    
   1649      1     55     36       0.000           62.50    
   1650      1     55     37       0.000           62.50    
   1651      1     55     38       0.000           62.50    
   1652      1     55     39       0.000           62.50    
   1653      1     55     40       0.000           62.50    
   1654      1     55     41       0.000           62.50    
   1655      1     55     42       0.000           62.50    
   1656      1     55     43       0.000           62.50    
   1657      1     55     44       0.000           62.50    
   1658      1     55     45       0.000           62.50    
   1659      1     55     46       0.000           62.50    
   1660      1     55     47       0.000           62.50    
   1661      1     55     48       0.000           62.50    
   1662      1     55     49       0.000           62.50    
   1663      1     55     50       0.000           62.50    
   1664      1     55     51       0.000           62.50    
   1665      1     55     52       0.000           62.50    
   1666      1     55     53       0.000           62.50    
   1667      1     55     54       0.000           62.50    
   1668      1     55     55       0.000           62.50    
   1669      1     55     56       0.000           62.50    
   1670      1     55     57       0.000           62.50    
   1671      1     55     58       0.000           62.50    
   1672      1     55     59       0.000           62.50    
   1673      1     55     60       0.000           62.50    
   1674      1     55     61       0.000           62.50    
   1675      1     56      1       0.000           62.50    
   1676      1     56      2       0.000           62.50    
   1677      1     56      3       0.000           62.50    
   1678      1     56      4       0.000           62.50    
   1679      1     56      5       0.000           62.50    
   1680      1     56      6       0.000           62.50    
   1681      1     56      7       0.000           62.50    
   1682      1     56      8       0.000           62.50    
   1683      1     56      9       0.000           62.50    
   1684      1     56     10       0.000           62.50    
   1685      1     56     11       0.000           62.50    
   1686      1     56     12       0.000           62.50    
   1687      1     56     13       0.000           62.50    
   1688      1     56     14       0.000           62.50    
   1689      1     56     15       0.000           62.50    
   1690      1     56     16       0.000           62.50    
   1691      1     56     17       0.000           62.50    
   1692      1     56     18       0.000           62.50    
   1693      1     56     19       0.000           62.50    
   1694      1     56     20       0.000           62.50    
   1695      1     56     21       0.000           62.50    
   1696      1     56     22       0.000           62.50    
   1697      1     56     23       0.000           62.50    
   1698      1     56     24       0.000           62.50    
   1699      1     56     25       0.000           62.50    
   1700      1     56     26       0.000           62.50    
   1701      1     56     27       0.000           62.50    
   1702      1     56     28       0.000           62.50    
   1703      1     56     29       0.000           62.50    
   1704      1     56     30       0.000           62.50    
   1705      1     56     31       0.000           62.50    
   1706      1     56     32       0.000           62.50    
   1707      1     56     33       0.000           62.50    
   1708      1     56     34       0.000           62.50    
   1709      1     56     35       0.000           62.50    
   1710      1     56     36       0.000           62.50    
   1711      1     56     37       0.000           62.50    
   1712      1     56     38       0.000           62.50    
   1713      1     56     39       0.000           62.50    
   1714      1     56     40       0.000           62.50    
   1715      1     56     41       0.000           62.50    
   1716      1     56     42       0.000           62.50    
   1717      1     56     43       0.000           62.50    
   1718      1     56     44       0.000           62.50    
   1719      1     56     45       0.000           62.50    
   1720      1     56     46       0.000           62.50    
   1721      1     56     47       0.000           62.50    
   1722      1     56     48       0.000           62.50    
   1723      1     56     49       0.000           62.50    
   1724      1     56     50       0.000           62.50    
   1725      1     56     51       0.000           62.50    
   1726      1     56     52       0.000           62.50    
   1727      1     56     53       0.000           62.50    
   1728      1     56     54       0.000           62.50    
   1729      1     56     55       0.000           62.50    
   1730      1     56     56       0.000           62.50    
   1731      1     56     57       0.000           62.50    
   1732      1     56     58       0.000           62.50    
   1733      1     56     59       0.000           62.50    
   1734      1     56     60       0.000           62.50    
   1735      1     56     61       0.000           62.50    
   1736      1     57      1       0.000           62.50    
   1737      1     57      2       0.000           62.50    
   1738      1     57      3       0.000           62.50    
   1739      1     57      4       0.000           62.50    
   1740      1     57      5       0.000           62.50    
   1741      1     57      6       0.000           62.50    
   1742      1     57      7       0.000           62.50    
   1743      1     57      8       0.000           62.50    
   1744      1     57      9       0.000           62.50    
   1745      1     57     10       0.000           62.50    
   1746      1     57     11       0.000           62.50    
   1747      1     57     12       0.000           62.50    
   1748      1     57     13       0.000           62.50    
   1749      1     57     14       0.000           62.50    
   1750      1     57     15       0.000           62.50    
   1751      1     57     16       0.000           62.50    
   1752      1     57     17       0.000           62.50    
   1753      1     57     18       0.000           62.50    
   1754      1     57     19       0.000           62.50    
   1755      1     57     20       0.000           62.50    
   1756      1     57     21       0.000           62.50    
   1757      1     57     22       0.000           62.50    
   1758      1     57     23       0.000           62.50    
   1759      1     57     24       0.000           62.50    
   1760      1     57     25       0.000           62.50    
   1761      1     57     26       0.000           62.50    
   1762      1     57     27       0.000           62.50    
   1763      1     57     28       0.000           62.50    
   1764      1     57     29       0.000           62.50    
   1765      1     57     30       0.000           62.50    
   1766      1     57     31       0.000           62.50    
   1767      1     57     32       0.000           62.50    
   1768      1     57     33       0.000           62.50    
   1769      1     57     34       0.000           62.50    
   1770      1     57     35       0.000           62.50    
   1771      1     57     36       0.000           62.50    
   1772      1     57     37       0.000           62.50    
   1773      1     57     38       0.000           62.50    
   1774      1     57     39       0.000           62.50    
   1775      1     57     40       0.000           62.50    
   1776      1     57     41       0.000           62.50    
   1777      1     57     42       0.000           62.50    
   1778      1     57     43       0.000           62.50    
   1779      1     57     44       0.000           62.50    
   1780      1     57     45       0.000           62.50    
   1781      1     57     46       0.000           62.50    
   1782      1     57     47       0.000           62.50    
   1783      1     57     48       0.000           62.50    
   1784      1     57     49       0.000           62.50    
   1785      1     57     50       0.000           62.50    
   1786      1     57     51       0.000           62.50    
   1787      1     57     52       0.000           62.50    
   1788      1     57     53       0.000           62.50    
   1789      1     57     54       0.000           62.50    
   1790      1     57     55       0.000           62.50    
   1791      1     57     56       0.000           62.50    
   1792      1     57     57       0.000           62.50    
   1793      1     57     58       0.000           62.50    
   1794      1     57     59       0.000           62.50    
   1795      1     57     60       0.000           62.50    
   1796      1     57     61       0.000           62.50    
   1797      1     58      1       0.000           62.50    
   1798      1     58      2       0.000           62.50    
   1799      1     58      3       0.000           62.50    
   1800      1     58      4       0.000           62.50    
   1801      1     58      5       0.000           62.50    
   1802      1     58      6       0.000           62.50    
   1803      1     58      7       0.000           62.50    
   1804      1     58      8       0.000           62.50    
   1805      1     58      9       0.000           62.50    
   1806      1     58     10       0.000           62.50    
   1807      1     58     11       0.000           62.50    
   1808      1     58     12       0.000           62.50    
   1809      1     58     13       0.000           62.50    
   1810      1     58     14       0.000           62.50    
   1811      1     58     15       0.000           62.50    
   1812      1     58     16       0.000           62.50    
   1813      1     58     17       0.000           62.50    
   1814      1     58     18       0.000           62.50    
   1815      1     58     19       0.000           62.50    
   1816      1     58     20       0.000           62.50    
   1817      1     58     21       0.000           62.50    
   1818      1     58     22       0.000           62.50    
   1819      1     58     23       0.000           62.50    
   1820      1     58     24       0.000           62.50    
   1821      1     58     25       0.000           62.50    
   1822      1     58     26       0.000           62.50    
   1823      1     58     27       0.000           62.50    
   1824      1     58     28       0.000           62.50    
   1825      1     58     29       0.000           62.50    
   1826      1     58     30       0.000           62.50    
   1827      1     58     31       0.000           62.50    
   1828      1     58     32       0.000           62.50    
   1829      1     58     33       0.000           62.50    
   1830      1     58     34       0.000           62.50    
   1831      1     58     35       0.000           62.50    
   1832      1     58     36       0.000           62.50    
   1833      1     58     37       0.000           62.50    
   1834      1     58     38       0.000           62.50    
   1835      1     58     39       0.000           62.50    
   1836      1     58     40       0.000           62.50    
   1837      1     58     41       0.000           62.50    
   1838      1     58     42       0.000           62.50    
   1839      1     58     43       0.000           62.50    
   1840      1     58     44       0.000           62.50    
   1841      1     58     45       0.000           62.50    
   1842      1     58     46       0.000           62.50    
   1843      1     58     47       0.000           62.50    
   1844      1     58     48       0.000           62.50    
   1845      1     58     49       0.000           62.50    
   1846      1     58     50       0.000           62.50    
   1847      1     58     51       0.000           62.50    
   1848      1     58     52       0.000           62.50    
   1849      1     58     53       0.000           62.50    
   1850      1     58     54       0.000           62.50    
   1851      1     58     55       0.000           62.50    
   1852      1     58     56       0.000           62.50    
   1853      1     58     57       0.000           62.50    
   1854      1     58     58       0.000           62.50    
   1855      1     58     59       0.000           62.50    
   1856      1     58     60       0.000           62.50    
   1857      1     58     61       0.000           62.50    
   1858      1     59      1       0.000           62.50    
   1859      1     59      2       0.000           62.50    
   1860      1     59      3       0.000           62.50    
   1861      1     59      4       0.000           62.50    
   1862      1     59      5       0.000           62.50    
   1863      1     59      6       0.000           62.50    
   1864      1     59      7       0.000           62.50    
   1865      1     59      8       0.000           62.50    
   1866      1     59      9       0.000           62.50    
   1867      1     59     10       0.000           62.50    
   1868      1     59     11       0.000           62.50    
   1869      1     59     12       0.000           62.50    
   1870      1     59     13       0.000           62.50    
   1871      1     59     14       0.000           62.50    
   1872      1     59     15       0.000           62.50    
   1873      1     59     16       0.000           62.50    
   1874      1     59     17       0.000           62.50    
   1875      1     59     18       0.000           62.50    
   1876      1     59     19       0.000           62.50    
   1877      1     59     20       0.000           62.50    
   1878      1     59     21       0.000           62.50    
   1879      1     59     22       0.000           62.50    
   1880      1     59     23       0.000           62.50    
   1881      1     59     24       0.000           62.50    
   1882      1     59     25       0.000           62.50    
   1883      1     59     26       0.000           62.50    
   1884      1     59     27       0.000           62.50    
   1885      1     59     28       0.000           62.50    
   1886      1     59     29       0.000           62.50    
   1887      1     59     30       0.000           62.50    
   1888      1     59     31       0.000           62.50    
   1889      1     59     32       0.000           62.50    
   1890      1     59     33       0.000           62.50    
   1891      1     59     34       0.000           62.50    
   1892      1     59     35       0.000           62.50    
   1893      1     59     36       0.000           62.50    
   1894      1     59     37       0.000           62.50    
   1895      1     59     38       0.000           62.50    
   1896      1     59     39       0.000           62.50    
   1897      1     59     40       0.000           62.50    
   1898      1     59     41       0.000           62.50    
   1899      1     59     42       0.000           62.50    
   1900      1     59     43       0.000           62.50    
   1901      1     59     44       0.000           62.50    
   1902      1     59     45       0.000           62.50    
   1903      1     59     46       0.000           62.50    
   1904      1     59     47       0.000           62.50    
   1905      1     59     48       0.000           62.50    
   1906      1     59     49       0.000           62.50    
   1907      1     59     50       0.000           62.50    
   1908      1     59     51       0.000           62.50    
   1909      1     59     52       0.000           62.50    
   1910      1     59     53       0.000           62.50    
   1911      1     59     54       0.000           62.50    
   1912      1     59     55       0.000           62.50    
   1913      1     59     56       0.000           62.50    
   1914      1     59     57       0.000           62.50    
   1915      1     59     58       0.000           62.50    
   1916      1     59     59       0.000           62.50    
   1917      1     59     60       0.000           62.50    
   1918      1     59     61       0.000           62.50    
   1919      1     60      1       0.000           62.50    
   1920      1     60      2       0.000           62.50    
   1921      1     60      3       0.000           62.50    
   1922      1     60      4       0.000           62.50    
   1923      1     60      5       0.000           62.50    
   1924      1     60      6       0.000           62.50    
   1925      1     60      7       0.000           62.50    
   1926      1     60      8       0.000           62.50    
   1927      1     60      9       0.000           62.50    
   1928      1     60     10       0.000           62.50    
   1929      1     60     11       0.000           62.50    
   1930      1     60     12       0.000           62.50    
   1931      1     60     13       0.000           62.50    
   1932      1     60     14       0.000           62.50    
   1933      1     60     15       0.000           62.50    
   1934      1     60     16       0.000           62.50    
   1935      1     60     17       0.000           62.50    
   1936      1     60     18       0.000           62.50    
   1937      1     60     19       0.000           62.50    
   1938      1     60     20       0.000           62.50    
   1939      1     60     21       0.000           62.50    
   1940      1     60     22       0.000           62.50    
   1941      1     60     23       0.000           62.50    
   1942      1     60     24       0.000           62.50    
   1943      1     60     25       0.000           62.50    
   1944      1     60     26       0.000           62.50    
   1945      1     60     27       0.000           62.50    
   1946      1     60     28       0.000           62.50    
   1947      1     60     29       0.000           62.50    
   1948      1     60     30       0.000           62.50    
   1949      1     60     31       0.000           62.50    
   1950      1     60     32       0.000           62.50    
   1951      1     60     33       0.000           62.50    
   1952      1     60     34       0.000           62.50    
   1953      1     60     35       0.000           62.50    
   1954      1     60     36       0.000           62.50    
   1955      1     60     37       0.000           62.50    
   1956      1     60     38       0.000           62.50    
   1957      1     60     39       0.000           62.50    
   1958      1     60     40       0.000           62.50    
   1959      1     60     41       0.000           62.50    
   1960      1     60     42       0.000           62.50    
   1961      1     60     43       0.000           62.50    
   1962      1     60     44       0.000           62.50    
   1963      1     60     45       0.000           62.50    
   1964      1     60     46       0.000           62.50    
   1965      1     60     47       0.000           62.50    
   1966      1     60     48       0.000           62.50    
   1967      1     60     49       0.000           62.50    
   1968      1     60     50       0.000           62.50    
   1969      1     60     51       0.000           62.50    
   1970      1     60     52       0.000           62.50    
   1971      1     60     53       0.000           62.50    
   1972      1     60     54       0.000           62.50    
   1973      1     60     55       0.000           62.50    
   1974      1     60     56       0.000           62.50    
   1975      1     60     57       0.000           62.50    
   1976      1     60     58       0.000           62.50    
   1977      1     60     59       0.000           62.50    
   1978      1     60     60       0.000           62.50    
   1979      1     60     61       0.000           62.50    
   1980      1     61      1       0.000           62.50    
   1981      1     61      2       0.000           62.50    
   1982      1     61      3       0.000           62.50    
   1983      1     61      4       0.000           62.50    
   1984      1     61      5       0.000           62.50    
   1985      1     61      6       0.000           62.50    
   1986      1     61      7       0.000           62.50    
   1987      1     61      8       0.000           62.50    
   1988      1     61      9       0.000           62.50    
   1989      1     61     10       0.000           62.50    
   1990      1     61     11       0.000           62.50    
   1991      1     61     12       0.000           62.50    
   1992      1     61     13       0.000           62.50    
   1993      1     61     14       0.000           62.50    
   1994      1     61     15       0.000           62.50    
   1995      1     61     16       0.000           62.50    
   1996      1     61     17       0.000           62.50    
   1997      1     61     18       0.000           62.50    
   1998      1     61     19       0.000           62.50    
   1999      1     61     20       0.000           62.50    
   2000      1     61     21       0.000           62.50    
   2001      1     61     22       0.000           62.50    
   2002      1     61     23       0.000           62.50    
   2003      1     61     24       0.000           62.50    
   2004      1     61     25       0.000           62.50    
   2005      1     61     26       0.000           62.50    
   2006      1     61     27       0.000           62.50    
   2007      1     61     28       0.000           62.50    
   2008      1     61     29       0.000           62.50    
   2009      1     61     30       0.000           62.50    
   2010      1     61     31       0.000           62.50    
   2011      1     61     32       0.000           62.50    
   2012      1     61     33       0.000           62.50    
   2013      1     61     34       0.000           62.50    
   2014      1     61     35       0.000           62.50    
   2015      1     61     36       0.000           62.50    
   2016      1     61     37       0.000           62.50    
   2017      1     61     38       0.000           62.50    
   2018      1     61     39       0.000           62.50    
   2019      1     61     40       0.000           62.50    
   2020      1     61     41       0.000           62.50    
   2021      1     61     42       0.000           62.50    
   2022      1     61     43       0.000           62.50    
   2023      1     61     44       0.000           62.50    
   2024      1     61     45       0.000           62.50    
   2025      1     61     46       0.000           62.50    
   2026      1     61     47       0.000           62.50    
   2027      1     61     48       0.000           62.50    
   2028      1     61     49       0.000           62.50    
   2029      1     61     50       0.000           62.50    
   2030      1     61     51       0.000           62.50    
   2031      1     61     52       0.000           62.50    
   2032      1     61     53       0.000           62.50    
   2033      1     61     54       0.000           62.50    
   2034      1     61     55       0.000           62.50    
   2035      1     61     56       0.000           62.50    
   2036      1     61     57       0.000           62.50    
   2037      1     61     58       0.000           62.50    
   2038      1     61     59       0.000           62.50    
   2039      1     61     60       0.000           62.50    
   2040      1     61     61       0.000           62.50    

   2040 GHB CELLS
 
 SOLVING FOR HEAD 
                                                   Max.-Head-Change                         Max.-Flux-Residual
  Residual-Control   Outer-Iter.   Inner-Iter.     Column Row Layer    Maximum-Head-Change  Column Row Layer    Maximum-Flux-Residual          L2-NORM 
          0                 1          13            31   31     2       0.8809793057E+00      11   10    1        -0.1750000000E+02      0.1041353341E+04
          0                 2           1            20   46     2       0.3720264543E-03      22   46    2         0.2144666241E-01      0.3815454465E+00
          0                 3           1            24   41     1       0.2642454907E-03      53    3    2         0.1362109723E-01      0.2976067459E+00
          0                 4           1            30   38     2       0.2466684265E-03      57    3    2         0.1177583263E-01      0.2568799264E+00
          0                 5           1            28   35     1       0.2173156783E-03      57    3    2        -0.9766449835E-02      0.2267755207E+00
          0                 6           1            30   34     2       0.2278407897E-03      31   33    2         0.9171587975E-02      0.2028420579E+00
          0                 7           1            30   33     1       0.1845651072E-03      27   33    2         0.8076228701E-02      0.1813670250E+00
          0                 8           1            31   33     2       0.2005380175E-03      31   33    2         0.7791196637E-02      0.1631417907E+00
          0                 9           1            31   32     1       0.1497141308E-03      28   32    2         0.6887791431E-02      0.1462692418E+00
          0                10           1            31   31     2       0.1663198989E-03      32   32    2         0.6465691265E-02      0.1318603751E+00
                                                   Max.-Head-Change                         Max.-Flux-Residual
  Residual-Control   Outer-Iter.   Inner-Iter.     Column Row Layer    Maximum-Head-Change  Column Row Layer    Maximum-Flux-Residual          L2-NORM 
          0                11           1            31   32     1       0.1196754602E-03      28   32    2         0.5730021190E-02      0.1185989093E+00
          0                12           1            31   31     2       0.1322462064E-03      32   32    2         0.5344411464E-02      0.1070705882E+00
          0                13           1            32   31     1       0.9745214475E-04      28   32    2         0.4719511593E-02      0.9663438823E-01
          0                14           1            32   32     2       0.1050434932E-03      32   32    2         0.4396703630E-02      0.8728220351E-01
          0                15           1            29   31     2       0.8035946970E-04      28   32    2         0.3871914581E-02      0.7891537537E-01
          0                16           1            32   32     2       0.8439344738E-04      32   32    2         0.3605896982E-02      0.7132459869E-01
          0                17           1            29   31     2       0.6632634430E-04      42   14    2         0.3240713442E-02      0.6453490396E-01
          0                18           1            32   32     2       0.6817628867E-04      32   32    2         0.2950389652E-02      0.5835898694E-01
          0                19           1            29   31     2       0.5460690311E-04      42   14    2         0.2771979005E-02      0.5282792576E-01
          0                20           1            32   32     2       0.5527807553E-04      33   31    2         0.2411979405E-02      0.4779346050E-01
                                                   Max.-Head-Change                         Max.-Flux-Residual
  Residual-Control   Outer-Iter.   Inner-Iter.     Column Row Layer    Maximum-Head-Change  Column Row Layer    Maximum-Flux-Residual          L2-NORM 
          0                21           1            29   31     2       0.4487671526E-04      42   14    2         0.2341570193E-02      0.4327832779E-01
          0                22           1            32   32     2       0.4494567529E-04      33   31    2         0.1979160220E-02      0.3916794979E-01
          0                23           1            29   31     2       0.3683600724E-04      42   14    2         0.1957950903E-02      0.3547674041E-01
          0                24           1            32   32     2       0.3662508410E-04      33   31    2         0.1622114885E-02      0.3211656245E-01
          0                25           1            29   31     2       0.3020985126E-04      42   14    2         0.1623538105E-02      0.2909584595E-01
          0                26           1            31   30     1       0.2993136109E-04      36   21    1         0.1330885442E-02      0.2634622448E-01
          0                27           1            29   31     2       0.2476335470E-04      42   14    2         0.1336723743E-02      0.2387210564E-01
          0                28           1            31   30     1       0.2456605461E-04      36   21    1         0.1128102903E-02      0.2162025925E-01
          0                29           1            30   32     2       0.2029337706E-04      42   14    2         0.1093928217E-02      0.1959254473E-01
          0                30           1            31   30     1       0.2017304880E-04      36   21    1         0.9514031267E-03      0.1774714636E-01
                                                   Max.-Head-Change                         Max.-Flux-Residual
  Residual-Control   Outer-Iter.   Inner-Iter.     Column Row Layer    Maximum-Head-Change  Column Row Layer    Maximum-Flux-Residual          L2-NORM 
          0                31           1            30   32     2       0.1663687767E-04      39   18    1         0.8921656793E-03      0.1608446322E-01
          0                32           1            31   30     1       0.1656909977E-04      36   21    1         0.7983137736E-03      0.1457134446E-01
          0                33           1            30   32     2       0.1363844970E-04      39   18    1         0.7422781079E-03      0.1320743647E-01
          0                34           1            31   30     1       0.1360858400E-04      36   21    1         0.6665240602E-03      0.1196623003E-01
          0                35           1            30   32     2       0.1118129027E-04      39   18    1         0.6137703565E-03      0.1084704786E-01
          0                36           1            31   30     1       0.1117465596E-04      36   21    1         0.5538128182E-03      0.9828531598E-02
          0                37           1            30   30     2       0.9172107654E-05      39   18    1         0.5046974436E-03      0.8909920429E-02

    ------------------------------------------------
       NWT REQUIRED           37 OUTER ITERATIONS 
       AND A TOTAL OF         49 INNER ITERATIONS.
    ------------------------------------------------

 OUTPUT CONTROL FOR STRESS PERIOD    1   TIME STEP    1
    PRINT BUDGET
    SAVE HEAD FOR ALL LAYERS
 SOLVING FOR ZETA FOR LAYER     1 ZONE     2

     841 UPPER PART EQS.       840 LOWER PART EQS.    BAND WIDTH + 1 =   42
 STRESS PERIOD=  1 TIMESTEP=  1 LAYER=  1 ZONE=  2 ACTIVE CELLS= 1681 NUMBER OF EQUATIONS=    1681
 UBUDSV SAVING "      ZETASRF  1" ON UNIT 55 AT TIME STEP  1, STRESS PERIOD    1


                      VOLUMETRIC SWI ZONE BUDGET FOR ENTIRE MODEL
                     AT END OF TIME STEP    1 IN STRESS PERIOD   1
                                      ZONE     1
  -----------------------------------------------------------------------------------

        CUMULATIVE VOLUMES      L**3       RATES FOR THIS TIME STEP      L**3/T
        ------------------                 ------------------------

              IN:                                      IN:
              ---                                      ---
             BOUNDARIES =      122713.0000            BOUNDARIES =        1681.0000
          CONSTANT HEAD =           0.0000         CONSTANT HEAD =           0.0000
            ZONE CHANGE =           0.0000           ZONE CHANGE =           0.0000
       ZONE CHG TIP/TOE =        1024.9844      ZONE CHG TIP/TOE =          14.0409
            ZONE MIXING =           0.0000           ZONE MIXING =           0.0000

               TOTAL IN =      123737.9844              TOTAL IN =        1695.0409

             OUT:                                     OUT:
             ----                                     ----
             BOUNDARIES =           0.0000            BOUNDARIES =           0.0000
          CONSTANT HEAD =           0.0000         CONSTANT HEAD =           0.0000
            ZONE CHANGE =      122703.0000           ZONE CHANGE =        1680.8630
       ZONE CHG TIP/TOE =        1024.9844      ZONE CHG TIP/TOE =          14.0409
            ZONE MIXING =           0.0000           ZONE MIXING =           0.0000

              TOTAL OUT =      123727.9844             TOTAL OUT =        1694.9039

               IN - OUT =          10.0000              IN - OUT =           0.1370

    PERCENT DISCREPANCY =           0.01     PERCENT DISCREPANCY =           0.01



                      VOLUMETRIC SWI ZONE BUDGET FOR ENTIRE MODEL
                     AT END OF TIME STEP    1 IN STRESS PERIOD   1
                                      ZONE     2
  -----------------------------------------------------------------------------------

        CUMULATIVE VOLUMES      L**3       RATES FOR THIS TIME STEP      L**3/T
        ------------------                 ------------------------

              IN:                                      IN:
              ---                                      ---
             BOUNDARIES =           0.0000            BOUNDARIES =           0.0000
          CONSTANT HEAD =           0.0000         CONSTANT HEAD =           0.0000
            ZONE CHANGE =      122703.0000           ZONE CHANGE =        1680.8630
       ZONE CHG TIP/TOE =        1024.9844      ZONE CHG TIP/TOE =          14.0409
            ZONE MIXING =           0.0000           ZONE MIXING =           0.0000

               TOTAL IN =      123727.9844              TOTAL IN =        1694.9039

             OUT:                                     OUT:
             ----                                     ----
             BOUNDARIES =      122690.3281            BOUNDARIES =        1680.6895
          CONSTANT HEAD =           0.0000         CONSTANT HEAD =           0.0000
            ZONE CHANGE =           0.0000           ZONE CHANGE =           0.0000
       ZONE CHG TIP/TOE =        1024.9844      ZONE CHG TIP/TOE =          14.0409
            ZONE MIXING =           0.0000           ZONE MIXING =           0.0000

              TOTAL OUT =      123715.3125             TOTAL OUT =        1694.7303

               IN - OUT =          12.6719              IN - OUT =           0.1736

    PERCENT DISCREPANCY =           0.01     PERCENT DISCREPANCY =           0.01


 HEAD WILL BE SAVED ON UNIT   51 AT END OF TIME STEP    1, STRESS PERIOD    1
1
  VOLUMETRIC BUDGET FOR ENTIRE MODEL AT END OF TIME STEP    1, STRESS PERIOD   1
  ------------------------------------------------------------------------------

     CUMULATIVE VOLUMES      L**3       RATES FOR THIS TIME STEP      L**3/T
     ------------------                 ------------------------

           IN:                                      IN:
           ---                                      ---
             STORAGE =           0.0000               STORAGE =           0.0000
       CONSTANT HEAD =           0.0000         CONSTANT HEAD =           0.0000
               WELLS =      122713.0000                 WELLS =        1681.0000
     HEAD DEP BOUNDS =           0.0000       HEAD DEP BOUNDS =           0.0000
          SWIADDTOCH =           0.0000            SWIADDTOCH =           0.0000

            TOTAL IN =      122713.0000              TOTAL IN =        1681.0000

          OUT:                                     OUT:
          ----                                     ----
             STORAGE =           0.0000               STORAGE =           0.0000
       CONSTANT HEAD =           0.0000         CONSTANT HEAD =           0.0000
               WELLS =           0.0000                 WELLS =           0.0000
     HEAD DEP BOUNDS =      122690.3281       HEAD DEP BOUNDS =        1680.6895
          SWIADDTOCH =           0.0000            SWIADDTOCH =           0.0000

           TOTAL OUT =      122690.3281             TOTAL OUT =        1680.6895

            IN - OUT =          22.6719              IN - OUT =           0.3105

 PERCENT DISCREPANCY =           0.02     PERCENT DISCREPANCY =           0.02






         TIME SUMMARY AT END OF TIME STEP    1 IN STRESS PERIOD    1
                    SECONDS     MINUTES      HOURS       DAYS        YEARS
                    -----------------------------------------------------------
   TIME STEP LENGTH 6.30720E+06 1.05120E+05  1752.0      73.000     0.19986    
 STRESS PERIOD TIME 6.30720E+06 1.05120E+05  1752.0      73.000     0.19986    
         TOTAL TIME 6.30720E+06 1.05120E+05  1752.0      73.000     0.19986    
1
 
 SOLVING FOR HEAD 
                                                   Max.-Head-Change                         Max.-Flux-Residual
  Residual-Control   Outer-Iter.   Inner-Iter.     Column Row Layer    Maximum-Head-Change  Column Row Layer    Maximum-Flux-Residual          L2-NORM 
          0                 1           2            31   51     1       0.2961607729E-02      11   11    1         0.9999690764E+00      0.1223823821E+02
          0                 2           1            45   15     2       0.2767070688E-03      45   47    2         0.1605072294E-01      0.2513594774E+00
          0                 3           1            20   19     1       0.1276703094E-03      47   18    1         0.8623255336E-02      0.1686496385E+00
          0                 4           1            44   20     2       0.1228048316E-03      45   19    2         0.5976231821E-02      0.1365843147E+00
          0                 5           1            41   23     2       0.8283340808E-04      47   22    1         0.5194490775E-02      0.1167369911E+00
          0                 6           1            37   25     2       0.9894839148E-04      50   27    1         0.3973886556E-02      0.1025868797E+00
          0                 7           1            32   28     2       0.7339128486E-04      47   30    1         0.4087336540E-02      0.9140230928E-01
          0                 8           1            31   30     1       0.9555171951E-04      31   29    2         0.3493654141E-02      0.8202964015E-01
          0                 9           1            32   30     2       0.6414831578E-04      47   30    1         0.3441856963E-02      0.7375321328E-01
          0                10           1            31   31     2       0.8585604632E-04      31   29    2         0.3088299964E-02      0.6645341118E-01
                                                   Max.-Head-Change                         Max.-Flux-Residual
  Residual-Control   Outer-Iter.   Inner-Iter.     Column Row Layer    Maximum-Head-Change  Column Row Layer    Maximum-Flux-Residual          L2-NORM 
          0                11           1            33   31     2       0.5279690716E-04      47   30    1         0.2919091571E-02      0.5980272053E-01
          0                12           1            31   31     2       0.7372218085E-04      31   29    2         0.2598329412E-02      0.5389571888E-01
          0                13           1            33   31     2       0.4249124479E-04      47   30    1         0.2456822434E-02      0.4847917368E-01
          0                14           1            31   31     2       0.6207020156E-04      31   29    2         0.2141203618E-02      0.4365886401E-01
          0                15           1            33   31     2       0.3389823071E-04      47   30    1         0.2044429595E-02      0.3924182313E-01
          0                16           1            31   31     2       0.5174629168E-04      31   29    2         0.1747449471E-02      0.3530362068E-01
          0                17           1            33   31     2       0.2694562334E-04      47   30    1         0.1681272049E-02      0.3170375592E-01
          0                18           1            31   31     2       0.4283429086E-04      31   29    2         0.1418561334E-02      0.2849073440E-01
          0                19           1            34   30     2       0.2144779870E-04      47   30    1         0.1366519899E-02      0.2556086400E-01
          0                20           1            31   31     2       0.3520210232E-04      32   32    2         0.1150219882E-02      0.2294709476E-01
                                                   Max.-Head-Change                         Max.-Flux-Residual
  Residual-Control   Outer-Iter.   Inner-Iter.     Column Row Layer    Maximum-Head-Change  Column Row Layer    Maximum-Flux-Residual          L2-NORM 
          0                21           1            34   30     2       0.1708621252E-04      47   30    1         0.1098166176E-02      0.2057203293E-01
          0                22           1            31   31     2       0.2879526838E-04      32   32    2         0.9316550485E-03      0.1845093214E-01
          0                23           1            34   30     2       0.1360326255E-04      41   32    1         0.8753740515E-03      0.1652953180E-01
          0                24           1            31   31     2       0.2345296774E-04      32   32    2         0.7533727818E-03      0.1481296374E-01
          0                25           1            35   31     2       0.1085776585E-04      41   32    1         0.7288818285E-03      0.1326199472E-01
          0                26           1            31   31     2       0.1902757127E-04      32   32    2         0.6082988045E-03      0.1187640729E-01
          0                27           1            35   31     2       0.8670554588E-05      41   32    1         0.6035793872E-03      0.1062708805E-01

    ------------------------------------------------
       NWT REQUIRED           27 OUTER ITERATIONS 
       AND A TOTAL OF         28 INNER ITERATIONS.
    ------------------------------------------------

 OUTPUT CONTROL FOR STRESS PERIOD    1   TIME STEP    2
    PRINT BUDGET
    SAVE HEAD FOR ALL LAYERS
 SOLVING FOR ZETA FOR LAYER     1 ZONE     2

     921 UPPER PART EQS.       924 LOWER PART EQS.    BAND WIDTH + 1 =   44
 STRESS PERIOD=  1 TIMESTEP=  2 LAYER=  1 ZONE=  2 ACTIVE CELLS= 1845 NUMBER OF EQUATIONS=    1845
 UBUDSV SAVING "      ZETASRF  1" ON UNIT 55 AT TIME STEP  2, STRESS PERIOD    1


                      VOLUMETRIC SWI ZONE BUDGET FOR ENTIRE MODEL
                     AT END OF TIME STEP    2 IN STRESS PERIOD   1
                                      ZONE     1
  -----------------------------------------------------------------------------------

        CUMULATIVE VOLUMES      L**3       RATES FOR THIS TIME STEP      L**3/T
        ------------------                 ------------------------

              IN:                                      IN:
              ---                                      ---
             BOUNDARIES =      245426.0000            BOUNDARIES =        1681.0000
          CONSTANT HEAD =           0.0000         CONSTANT HEAD =           0.0000
            ZONE CHANGE =        1178.4806           ZONE CHANGE =          16.1436
       ZONE CHG TIP/TOE =        1024.9844      ZONE CHG TIP/TOE =           0.0000
            ZONE MIXING =           0.0000           ZONE MIXING =           0.0000

               TOTAL IN =      247629.4688              TOTAL IN =        1697.1436

             OUT:                                     OUT:
             ----                                     ----
             BOUNDARIES =       38974.8906            BOUNDARIES =         533.9026
          CONSTANT HEAD =           0.0000         CONSTANT HEAD =           0.0000
            ZONE CHANGE =      226488.2188           ZONE CHANGE =        1421.7152
       ZONE CHG TIP/TOE =        1024.9844      ZONE CHG TIP/TOE =           0.0000
            ZONE MIXING =           0.0000           ZONE MIXING =           0.0000

              TOTAL OUT =      266488.1250             TOTAL OUT =        1955.6178

               IN - OUT =      -18858.6562              IN - OUT =        -258.4742

    PERCENT DISCREPANCY =          -7.34     PERCENT DISCREPANCY =         -14.15



                      VOLUMETRIC SWI ZONE BUDGET FOR ENTIRE MODEL
                     AT END OF TIME STEP    2 IN STRESS PERIOD   1
                                      ZONE     2
  -----------------------------------------------------------------------------------

        CUMULATIVE VOLUMES      L**3       RATES FOR THIS TIME STEP      L**3/T
        ------------------                 ------------------------

              IN:                                      IN:
              ---                                      ---
             BOUNDARIES =           0.0000            BOUNDARIES =           0.0000
          CONSTANT HEAD =           0.0000         CONSTANT HEAD =           0.0000
            ZONE CHANGE =      226488.2188           ZONE CHANGE =        1421.7152
       ZONE CHG TIP/TOE =       19905.7754      ZONE CHG TIP/TOE =         258.6410
            ZONE MIXING =           0.0000           ZONE MIXING =           0.0000

               TOTAL IN =      246394.0000              TOTAL IN =        1680.3562

             OUT:                                     OUT:
             ----                                     ----
             BOUNDARIES =      206401.4375            BOUNDARIES =        1146.7274
          CONSTANT HEAD =           0.0000         CONSTANT HEAD =           0.0000
            ZONE CHANGE =       20059.2695           ZONE CHANGE =         274.7845
       ZONE CHG TIP/TOE =        1024.9844      ZONE CHG TIP/TOE =           0.0000
            ZONE MIXING =           0.0000           ZONE MIXING =           0.0000

              TOTAL OUT =      227485.6875             TOTAL OUT =        1421.5120

               IN - OUT =       18908.3125              IN - OUT =         258.8442

    PERCENT DISCREPANCY =           7.98     PERCENT DISCREPANCY =          16.69


 HEAD WILL BE SAVED ON UNIT   51 AT END OF TIME STEP    2, STRESS PERIOD    1
1
  VOLUMETRIC BUDGET FOR ENTIRE MODEL AT END OF TIME STEP    2, STRESS PERIOD   1
  ------------------------------------------------------------------------------

     CUMULATIVE VOLUMES      L**3       RATES FOR THIS TIME STEP      L**3/T
     ------------------                 ------------------------

           IN:                                      IN:
           ---                                      ---
             STORAGE =           0.0000               STORAGE =           0.0000
       CONSTANT HEAD =           0.0000         CONSTANT HEAD =           0.0000
               WELLS =      245426.0000                 WELLS =        1681.0000
     HEAD DEP BOUNDS =           0.0000       HEAD DEP BOUNDS =           0.0000
          SWIADDTOCH =           0.0000            SWIADDTOCH =           0.0000

            TOTAL IN =      245426.0000              TOTAL IN =        1681.0000

          OUT:                                     OUT:
          ----                                     ----
             STORAGE =           0.0000               STORAGE =           0.0000
       CONSTANT HEAD =           0.0000         CONSTANT HEAD =           0.0000
               WELLS =           0.0000                 WELLS =           0.0000
     HEAD DEP BOUNDS =      245376.3125       HEAD DEP BOUNDS =        1680.6300
          SWIADDTOCH =           0.0000            SWIADDTOCH =           0.0000

           TOTAL OUT =      245376.3125             TOTAL OUT =        1680.6300

            IN - OUT =          49.6875              IN - OUT =           0.3700

 PERCENT DISCREPANCY =           0.02     PERCENT DISCREPANCY =           0.02






         TIME SUMMARY AT END OF TIME STEP    2 IN STRESS PERIOD    1
                    SECONDS     MINUTES      HOURS       DAYS        YEARS
                    -----------------------------------------------------------
   TIME STEP LENGTH 6.30720E+06 1.05120E+05  1752.0      73.000     0.19986    
 STRESS PERIOD TIME 1.26144E+07 2.10240E+05  3504.0      146.00     0.39973    
         TOTAL TIME 1.26144E+07 2.10240E+05  3504.0      146.00     0.39973    
1
 
 SOLVING FOR HEAD 
                                                   Max.-Head-Change                         Max.-Flux-Residual
  Residual-Control   Outer-Iter.   Inner-Iter.     Column Row Layer    Maximum-Head-Change  Column Row Layer    Maximum-Flux-Residual          L2-NORM 
          0                 1           2            48   48     1       0.2993446967E-02      10   49    1        -0.5170958296E+00      0.8609373554E+01
          0                 2           1            44   16     2       0.5324977802E-03      18   14    2         0.2392573575E-01      0.3893635847E+00
          0                 3           1            21   20     1       0.1974996272E-03      46   43    1         0.1363747206E-01      0.2773818893E+00
          0                 4           1            43   21     2       0.2328993010E-03      44   20    2         0.9694045345E-02      0.2292429892E+00
          0                 5           1            31   24     1       0.1376515290E-03      46   35    1         0.8896708781E-02      0.1996168296E+00
          0                 6           1            34   28     2       0.1998008212E-03      35   25    2         0.6941125839E-02      0.1764177309E+00
          0                 7           1            31   30     1       0.1276445581E-03      46   31    1         0.7179499194E-02      0.1579321392E+00
          0                 8           1            31   31     2       0.1821540873E-03      30   30    2         0.6307674559E-02      0.1414433022E+00
          0                 9           1            31   31     2       0.1096208557E-03      46   31    1         0.6028229874E-02      0.1272953996E+00
          0                10           1            30   30     2       0.1549228796E-03      30   30    2         0.5406780166E-02      0.1143263410E+00
                                                   Max.-Head-Change                         Max.-Flux-Residual
  Residual-Control   Outer-Iter.   Inner-Iter.     Column Row Layer    Maximum-Head-Change  Column Row Layer    Maximum-Flux-Residual          L2-NORM 
          0                11           1            31   31     2       0.9049875666E-04      46   31    1         0.5075238199E-02      0.1029578028E+00
          0                12           1            30   30     2       0.1284200657E-03      30   30    2         0.4488677070E-02      0.9254414092E-01
          0                13           1            32   32     2       0.7352108850E-04      46   31    1         0.4254962746E-02      0.8333057838E-01
          0                14           1            30   30     2       0.1054559560E-03      30   30    2         0.3680297316E-02      0.7492017428E-01
          0                15           1            32   32     2       0.5936266638E-04      46   31    1         0.3543350941E-02      0.6744453620E-01
          0                16           1            30   30     2       0.8636597024E-04      37   31    2         0.3003217145E-02      0.6063749362E-01
          0                17           1            33   31     2       0.4778272159E-04      46   35    1         0.2934421257E-02      0.5456799889E-01
          0                18           1            30   30     2       0.7063979983E-04      37   31    2         0.2459270335E-02      0.4905436304E-01
          0                19           1            33   31     2       0.3850709379E-04      46   35    1         0.2414160186E-02      0.4412684110E-01
          0                20           1            30   30     2       0.5771853369E-04      37   31    2         0.2006809911E-02      0.3966035768E-01
                                                   Max.-Head-Change                         Max.-Flux-Residual
  Residual-Control   Outer-Iter.   Inner-Iter.     Column Row Layer    Maximum-Head-Change  Column Row Layer    Maximum-Flux-Residual          L2-NORM 
          0                21           1            33   31     2       0.3100826155E-04      46   35    1         0.1972241757E-02      0.3566179576E-01
          0                22           1            30   30     2       0.4711284947E-04      37   31    2         0.1632316452E-02      0.3204452117E-01
          0                23           1            33   31     2       0.2495243112E-04      46   35    1         0.1600419476E-02      0.2880183419E-01
          0                24           1            30   30     2       0.3841255373E-04      37   31    2         0.1323624190E-02      0.2587373838E-01
          0                25           1            33   31     2       0.2006332985E-04      46   35    1         0.1290404864E-02      0.2324613580E-01
          0                26           1            30   30     2       0.3128382246E-04      37   31    2         0.1070132270E-02      0.2087729019E-01
          0                27           1            33   31     2       0.1611753469E-04      46   35    1         0.1034143600E-02      0.1874978516E-01
          0                28           1            30   30     2       0.2544805600E-04      37   31    2         0.8627376224E-03      0.1683457781E-01
          0                29           1            33   31     2       0.1293480774E-04      39   34    1         0.8285671005E-03      0.1511339542E-01
          0                30           1            31   31     2       0.2068352696E-04      31   29    2         0.6943577370E-03      0.1356596367E-01
                                                   Max.-Head-Change                         Max.-Flux-Residual
  Residual-Control   Outer-Iter.   Inner-Iter.     Column Row Layer    Maximum-Head-Change  Column Row Layer    Maximum-Flux-Residual          L2-NORM 
          0                31           1            34   30     2       0.1037395366E-04      39   34    1         0.6783770107E-03      0.1217465118E-01
          0                32           1            31   31     2       0.1679809172E-04      31   29    2         0.5629697838E-03      0.1092519825E-01
          0                33           1            34   30     2       0.8341072495E-05      39   34    1         0.5527670741E-03      0.9801462173E-02

    ------------------------------------------------
       NWT REQUIRED           33 OUTER ITERATIONS 
       AND A TOTAL OF         34 INNER ITERATIONS.
    ------------------------------------------------

 OUTPUT CONTROL FOR STRESS PERIOD    1   TIME STEP    3
    PRINT BUDGET
    SAVE HEAD FOR ALL LAYERS
 SOLVING FOR ZETA FOR LAYER     1 ZONE     2

     841 UPPER PART EQS.       840 LOWER PART EQS.    BAND WIDTH + 1 =   42
 STRESS PERIOD=  1 TIMESTEP=  3 LAYER=  1 ZONE=  2 ACTIVE CELLS= 1681 NUMBER OF EQUATIONS=    1681
 UBUDSV SAVING "      ZETASRF  1" ON UNIT 55 AT TIME STEP  3, STRESS PERIOD    1


                      VOLUMETRIC SWI ZONE BUDGET FOR ENTIRE MODEL
                     AT END OF TIME STEP    3 IN STRESS PERIOD   1
                                      ZONE     1
  -----------------------------------------------------------------------------------

        CUMULATIVE VOLUMES      L**3       RATES FOR THIS TIME STEP      L**3/T
        ------------------                 ------------------------

              IN:                                      IN:
              ---                                      ---
             BOUNDARIES =      368139.0000            BOUNDARIES =        1681.0000
          CONSTANT HEAD =           0.0000         CONSTANT HEAD =           0.0000
            ZONE CHANGE =        1178.4806           ZONE CHANGE =           0.0000
       ZONE CHG TIP/TOE =        2049.9688      ZONE CHG TIP/TOE =          14.0409
            ZONE MIXING =           0.0000           ZONE MIXING =           0.0000

               TOTAL IN =      371367.4375              TOTAL IN =        1695.0409

             OUT:                                     OUT:
             ----                                     ----
             BOUNDARIES =       38974.8906            BOUNDARIES =           0.0000
          CONSTANT HEAD =           0.0000         CONSTANT HEAD =           0.0000
            ZONE CHANGE =      349190.1875           ZONE CHANGE =        1680.8491
       ZONE CHG TIP/TOE =        2049.9688      ZONE CHG TIP/TOE =          14.0409
            ZONE MIXING =           0.0000           ZONE MIXING =           0.0000

              TOTAL OUT =      390215.0312             TOTAL OUT =        1694.8900

               IN - OUT =      -18847.5938              IN - OUT =           0.1509

    PERCENT DISCREPANCY =          -4.95     PERCENT DISCREPANCY =           0.01



                      VOLUMETRIC SWI ZONE BUDGET FOR ENTIRE MODEL
                     AT END OF TIME STEP    3 IN STRESS PERIOD   1
                                      ZONE     2
  -----------------------------------------------------------------------------------

        CUMULATIVE VOLUMES      L**3       RATES FOR THIS TIME STEP      L**3/T
        ------------------                 ------------------------

              IN:                                      IN:
              ---                                      ---
             BOUNDARIES =           0.0000            BOUNDARIES =           0.0000
          CONSTANT HEAD =           0.0000         CONSTANT HEAD =           0.0000
            ZONE CHANGE =      349190.1875           ZONE CHANGE =        1680.8491
       ZONE CHG TIP/TOE =       20930.7598      ZONE CHG TIP/TOE =          14.0409
            ZONE MIXING =           0.0000           ZONE MIXING =           0.0000

               TOTAL IN =      370120.9375              TOTAL IN =        1694.8900

             OUT:                                     OUT:
             ----                                     ----
             BOUNDARIES =      329089.5000            BOUNDARIES =        1680.6582
          CONSTANT HEAD =           0.0000         CONSTANT HEAD =           0.0000
            ZONE CHANGE =       20059.2695           ZONE CHANGE =           0.0000
       ZONE CHG TIP/TOE =        2049.9688      ZONE CHG TIP/TOE =          14.0409
            ZONE MIXING =           0.0000           ZONE MIXING =           0.0000

              TOTAL OUT =      351198.7500             TOTAL OUT =        1694.6991

               IN - OUT =       18922.1875              IN - OUT =           0.1909

    PERCENT DISCREPANCY =           5.25     PERCENT DISCREPANCY =           0.01


 HEAD WILL BE SAVED ON UNIT   51 AT END OF TIME STEP    3, STRESS PERIOD    1
1
  VOLUMETRIC BUDGET FOR ENTIRE MODEL AT END OF TIME STEP    3, STRESS PERIOD   1
  ------------------------------------------------------------------------------

     CUMULATIVE VOLUMES      L**3       RATES FOR THIS TIME STEP      L**3/T
     ------------------                 ------------------------

           IN:                                      IN:
           ---                                      ---
             STORAGE =           0.0000               STORAGE =           0.0000
       CONSTANT HEAD =           0.0000         CONSTANT HEAD =           0.0000
               WELLS =      368139.0000                 WELLS =        1681.0000
     HEAD DEP BOUNDS =           0.0000       HEAD DEP BOUNDS =           0.0000
          SWIADDTOCH =           0.0000            SWIADDTOCH =           0.0000

            TOTAL IN =      368139.0000              TOTAL IN =        1681.0000

          OUT:                                     OUT:
          ----                                     ----
             STORAGE =           0.0000               STORAGE =           0.0000
       CONSTANT HEAD =           0.0000         CONSTANT HEAD =           0.0000
               WELLS =           0.0000                 WELLS =           0.0000
     HEAD DEP BOUNDS =      368064.3750       HEAD DEP BOUNDS =        1680.6582
          SWIADDTOCH =           0.0000            SWIADDTOCH =           0.0000

           TOTAL OUT =      368064.3750             TOTAL OUT =        1680.6582

            IN - OUT =          74.6250              IN - OUT =           0.3418

 PERCENT DISCREPANCY =           0.02     PERCENT DISCREPANCY =           0.02






         TIME SUMMARY AT END OF TIME STEP    3 IN STRESS PERIOD    1
                    SECONDS     MINUTES      HOURS       DAYS        YEARS
                    -----------------------------------------------------------
   TIME STEP LENGTH 6.30720E+06 1.05120E+05  1752.0      73.000     0.19986    
 STRESS PERIOD TIME 1.89216E+07 3.15360E+05  5256.0      219.00     0.59959    
         TOTAL TIME 1.89216E+07 3.15360E+05  5256.0      219.00     0.59959    
1
 
 SOLVING FOR HEAD 
                                                   Max.-Head-Change                         Max.-Flux-Residual
  Residual-Control   Outer-Iter.   Inner-Iter.     Column Row Layer    Maximum-Head-Change  Column Row Layer    Maximum-Flux-Residual          L2-NORM 
          0                 1           2            31   51     1       0.3043901490E-02      51   51    1         0.9859038349E+00      0.1227346544E+02
          0                 2           1            45   15     2       0.2294583902E-03      45   47    2         0.1418639216E-01      0.2220019645E+00
          0                 3           1            19   18     1       0.1128663609E-03      47   18    1         0.7485362786E-02      0.1473247843E+00
          0                 4           1            44   20     2       0.1051664494E-03      50   23    1         0.5232067310E-02      0.1191036810E+00
          0                 5           1            41   23     2       0.7311623701E-04      47   22    1         0.4505737449E-02      0.1016135633E+00
          0                 6           1            26   23     1       0.8481931662E-04      50   27    1         0.3481450333E-02      0.8928718495E-01
          0                 7           1            32   28     2       0.6411193168E-04      47   30    1         0.3552290150E-02      0.7949595857E-01
          0                 8           1            31   30     1       0.8200891369E-04      31   29    2         0.3028267603E-02      0.7138748348E-01
          0                 9           1            33   31     2       0.5614929321E-04      47   30    1         0.2990388705E-02      0.6416428291E-01
          0                10           1            31   31     2       0.7376168049E-04      31   29    2         0.2685339702E-02      0.5786190049E-01
                                                   Max.-Head-Change                         Max.-Flux-Residual
  Residual-Control   Outer-Iter.   Inner-Iter.     Column Row Layer    Maximum-Head-Change  Column Row Layer    Maximum-Flux-Residual          L2-NORM 
          0                11           1            33   31     2       0.4627437706E-04      47   30    1         0.2531097795E-02      0.5207137083E-01
          0                12           1            31   31     2       0.6352797122E-04      31   29    2         0.2263425218E-02      0.4696616967E-01
          0                13           1            33   31     2       0.3727971348E-04      47   30    1         0.2126644801E-02      0.4224365520E-01
          0                14           1            31   31     2       0.5352772632E-04      31   29    2         0.1867369869E-02      0.3807673084E-01
          0                15           1            33   31     2       0.2978038748E-04      47   30    1         0.1765744448E-02      0.3422502690E-01
          0                16           1            31   31     2       0.4463065333E-04      31   29    2         0.1525428490E-02      0.3081871389E-01
          0                17           1            33   31     2       0.2370452911E-04      47   30    1         0.1448722828E-02      0.2767957831E-01
          0                18           1            31   31     2       0.3695498037E-04      32   32    2         0.1240131645E-02      0.2489873181E-01
          0                19           1            34   30     2       0.1889204703E-04      47   30    1         0.1174927814E-02      0.2234488256E-01
          0                20           1            31   31     2       0.3044005699E-04      32   32    2         0.1007943936E-02      0.2007963254E-01
                                                   Max.-Head-Change                         Max.-Flux-Residual
  Residual-Control   Outer-Iter.   Inner-Iter.     Column Row Layer    Maximum-Head-Change  Column Row Layer    Maximum-Flux-Residual          L2-NORM 
          0                21           1            34   30     2       0.1505348329E-04      47   30    1         0.9424936298E-03      0.1800592598E-01
          0                22           1            31   31     2       0.2495938356E-04      32   32    2         0.8174715296E-03      0.1616519579E-01
          0                23           1            35   31     2       0.1199804943E-04      41   32    1         0.7737903762E-03      0.1448427095E-01
          0                24           1            31   31     2       0.2035795964E-04      32   32    2         0.6617954222E-03      0.1299276139E-01
          0                25           1            35   31     2       0.9590393196E-05      41   32    1         0.6446025100E-03      0.1163520377E-01

    ------------------------------------------------
       NWT REQUIRED           25 OUTER ITERATIONS 
       AND A TOTAL OF         26 INNER ITERATIONS.
    ------------------------------------------------

 OUTPUT CONTROL FOR STRESS PERIOD    1   TIME STEP    4
    PRINT BUDGET
    SAVE HEAD FOR ALL LAYERS
 SOLVING FOR ZETA FOR LAYER     1 ZONE     2

     921 UPPER PART EQS.       924 LOWER PART EQS.    BAND WIDTH + 1 =   44
 STRESS PERIOD=  1 TIMESTEP=  4 LAYER=  1 ZONE=  2 ACTIVE CELLS= 1845 NUMBER OF EQUATIONS=    1845
 UBUDSV SAVING "      ZETASRF  1" ON UNIT 55 AT TIME STEP  4, STRESS PERIOD    1


                      VOLUMETRIC SWI ZONE BUDGET FOR ENTIRE MODEL
                     AT END OF TIME STEP    4 IN STRESS PERIOD   1
                                      ZONE     1
  -----------------------------------------------------------------------------------

        CUMULATIVE VOLUMES      L**3       RATES FOR THIS TIME STEP      L**3/T
        ------------------                 ------------------------

              IN:                                      IN:
              ---                                      ---
             BOUNDARIES =      490852.0000            BOUNDARIES =        1681.0000
          CONSTANT HEAD =           0.0000         CONSTANT HEAD =           0.0000
            ZONE CHANGE =        2274.2576           ZONE CHANGE =          15.0106
       ZONE CHG TIP/TOE =        2049.9688      ZONE CHG TIP/TOE =           0.0000
            ZONE MIXING =           0.0000           ZONE MIXING =           0.0000

               TOTAL IN =      495176.2188              TOTAL IN =        1696.0106

             OUT:                                     OUT:
             ----                                     ----
             BOUNDARIES =       77969.5156            BOUNDARIES =         534.1729
          CONSTANT HEAD =           0.0000         CONSTANT HEAD =           0.0000
            ZONE CHANGE =      452277.2188           ZONE CHANGE =        1412.1510
       ZONE CHG TIP/TOE =        2049.9688      ZONE CHG TIP/TOE =           0.0000
            ZONE MIXING =           0.0000           ZONE MIXING =           0.0000

              TOTAL OUT =      532296.7500             TOTAL OUT =        1946.3240

               IN - OUT =      -37120.5312              IN - OUT =        -250.3134

    PERCENT DISCREPANCY =          -7.23     PERCENT DISCREPANCY =         -13.74



                      VOLUMETRIC SWI ZONE BUDGET FOR ENTIRE MODEL
                     AT END OF TIME STEP    4 IN STRESS PERIOD   1
                                      ZONE     2
  -----------------------------------------------------------------------------------

        CUMULATIVE VOLUMES      L**3       RATES FOR THIS TIME STEP      L**3/T
        ------------------                 ------------------------

              IN:                                      IN:
              ---                                      ---
             BOUNDARIES =           0.0000            BOUNDARIES =           0.0000
          CONSTANT HEAD =           0.0000         CONSTANT HEAD =           0.0000
            ZONE CHANGE =      452277.2188           ZONE CHANGE =        1412.1510
       ZONE CHG TIP/TOE =       39216.9453      ZONE CHG TIP/TOE =         250.4957
            ZONE MIXING =           0.0000           ZONE MIXING =           0.0000

               TOTAL IN =      491494.1562              TOTAL IN =        1662.6467

             OUT:                                     OUT:
             ----                                     ----
             BOUNDARIES =      412778.2812            BOUNDARIES =        1146.4216
          CONSTANT HEAD =           0.0000         CONSTANT HEAD =           0.0000
            ZONE CHANGE =       39441.2344           ZONE CHANGE =         265.5064
       ZONE CHG TIP/TOE =        2049.9688      ZONE CHG TIP/TOE =           0.0000
            ZONE MIXING =           0.0000           ZONE MIXING =           0.0000

              TOTAL OUT =      454269.4688             TOTAL OUT =        1411.9280

               IN - OUT =       37224.6875              IN - OUT =         250.7188

    PERCENT DISCREPANCY =           7.87     PERCENT DISCREPANCY =          16.31


 HEAD WILL BE SAVED ON UNIT   51 AT END OF TIME STEP    4, STRESS PERIOD    1
1
  VOLUMETRIC BUDGET FOR ENTIRE MODEL AT END OF TIME STEP    4, STRESS PERIOD   1
  ------------------------------------------------------------------------------

     CUMULATIVE VOLUMES      L**3       RATES FOR THIS TIME STEP      L**3/T
     ------------------                 ------------------------

           IN:                                      IN:
           ---                                      ---
             STORAGE =           0.0000               STORAGE =           0.0000
       CONSTANT HEAD =           0.0000         CONSTANT HEAD =           0.0000
               WELLS =      490852.0000                 WELLS =        1681.0000
     HEAD DEP BOUNDS =           0.0000       HEAD DEP BOUNDS =           0.0000
          SWIADDTOCH =           0.0000            SWIADDTOCH =           0.0000

            TOTAL IN =      490852.0000              TOTAL IN =        1681.0000

          OUT:                                     OUT:
          ----                                     ----
             STORAGE =           0.0000               STORAGE =           0.0000
       CONSTANT HEAD =           0.0000         CONSTANT HEAD =           0.0000
               WELLS =           0.0000                 WELLS =           0.0000
     HEAD DEP BOUNDS =      490747.7812       HEAD DEP BOUNDS =        1680.5946
          SWIADDTOCH =           0.0000            SWIADDTOCH =           0.0000

           TOTAL OUT =      490747.7812             TOTAL OUT =        1680.5946

            IN - OUT =         104.2188              IN - OUT =           0.4054

 PERCENT DISCREPANCY =           0.02     PERCENT DISCREPANCY =           0.02






         TIME SUMMARY AT END OF TIME STEP    4 IN STRESS PERIOD    1
                    SECONDS     MINUTES      HOURS       DAYS        YEARS
                    -----------------------------------------------------------
   TIME STEP LENGTH 6.30720E+06 1.05120E+05  1752.0      73.000     0.19986    
 STRESS PERIOD TIME 2.52288E+07 4.20480E+05  7008.0      292.00     0.79945    
         TOTAL TIME 2.52288E+07 4.20480E+05  7008.0      292.00     0.79945    
1
 
 SOLVING FOR HEAD 
                                                   Max.-Head-Change                         Max.-Flux-Residual
  Residual-Control   Outer-Iter.   Inner-Iter.     Column Row Layer    Maximum-Head-Change  Column Row Layer    Maximum-Flux-Residual          L2-NORM 
          0                 1           2            48   48     1       0.3056640064E-02      10   49    1        -0.5770590481E+00      0.8891801547E+01
          0                 2           1            44   16     2       0.5745167375E-03      18   14    2         0.2541978388E-01      0.4152861588E+00
          0                 3           1            21   20     1       0.2093424976E-03      46   43    1         0.1463474490E-01      0.2948189735E+00
          0                 4           1            43   21     2       0.2465710488E-03      44   20    2         0.1032877376E-01      0.2431434907E+00
          0                 5           1            31   24     1       0.1470758106E-03      46   35    1         0.9419453966E-02      0.2115503429E+00
          0                 6           1            34   28     2       0.2062324007E-03      44   28    2         0.7381410077E-02      0.1870094337E+00
          0                 7           1            31   30     1       0.1387249920E-03      46   31    1         0.7535802981E-02      0.1675202713E+00
          0                 8           1            31   31     2       0.1841919397E-03      30   30    2         0.6682032282E-02      0.1502042540E+00
          0                 9           1            31   31     2       0.1213805545E-03      46   31    1         0.6282160422E-02      0.1353723124E+00
          0                10           1            31   31     2       0.1541066744E-03      30   30    2         0.5740892767E-02      0.1218148992E+00
                                                   Max.-Head-Change                         Max.-Flux-Residual
  Residual-Control   Outer-Iter.   Inner-Iter.     Column Row Layer    Maximum-Head-Change  Column Row Layer    Maximum-Flux-Residual          L2-NORM 
          0                11           1            31   31     2       0.1020110353E-03      46   31    1         0.5259718080E-02      0.1099382922E+00
          0                12           1            30   30     2       0.1263739973E-03      30   30    2         0.4786947736E-02      0.9907035178E-01
          0                13           1            32   32     2       0.8423326217E-04      46   31    1         0.4394230414E-02      0.8944467622E-01
          0                14           1            30   30     2       0.1030599369E-03      30   30    2         0.3947250611E-02      0.8066563540E-01
          0                15           1            32   32     2       0.6904052641E-04      46   31    1         0.3654829357E-02      0.7284089653E-01
          0                16           1            30   30     2       0.8404668287E-04      37   31    2         0.3255279445E-02      0.6572480492E-01
          0                17           1            32   32     2       0.5634326088E-04      46   31    1         0.3024747625E-02      0.5935338837E-01
          0                18           1            30   30     2       0.6865440596E-04      37   31    2         0.2687176794E-02      0.5357288732E-01
          0                19           1            33   31     2       0.4597014830E-04      46   35    1         0.2492486937E-02      0.4837933929E-01
          0                20           1            30   30     2       0.5617955481E-04      37   31    2         0.2212115338E-02      0.4367694434E-01
                                                   Max.-Head-Change                         Max.-Flux-Residual
  Residual-Control   Outer-Iter.   Inner-Iter.     Column Row Layer    Maximum-Head-Change  Column Row Layer    Maximum-Flux-Residual          L2-NORM 
          0                21           1            33   31     2       0.3744618301E-04      46   35    1         0.2046000275E-02      0.3944052077E-01
          0                22           1            30   30     2       0.4603899607E-04      37   31    2         0.1816291205E-02      0.3561129683E-01
          0                23           1            33   31     2       0.3046195195E-04      46   35    1         0.1671355601E-02      0.3215403049E-01
          0                24           1            30   30     2       0.3777025382E-04      37   31    2         0.1487455753E-02      0.2903367251E-01
          0                25           1            33   31     2       0.2474967715E-04      34   30    2         0.1371496762E-02      0.2621152973E-01
          0                26           1            30   30     2       0.3101007746E-04      37   31    2         0.1215044742E-02      0.2366759495E-01
          0                27           1            33   31     2       0.2008443311E-04      34   30    2         0.1130748829E-02      0.2136360684E-01
          0                28           1            30   30     2       0.2547062481E-04      38   30    2         0.9910546730E-03      0.1928898126E-01
          0                29           1            33   31     2       0.1627933070E-04      34   30    2         0.9306730948E-03      0.1740800424E-01
          0                30           1            31   31     2       0.2093795333E-04      38   30    2         0.8123768042E-03      0.1571583767E-01
                                                   Max.-Head-Change                         Max.-Flux-Residual
  Residual-Control   Outer-Iter.   Inner-Iter.     Column Row Layer    Maximum-Head-Change  Column Row Layer    Maximum-Flux-Residual          L2-NORM 
          0                31           1            33   31     2       0.1317983929E-04      34   30    2         0.7644803487E-03      0.1418036554E-01
          0                32           1            31   31     2       0.1721328424E-04      38   30    2         0.6642654979E-03      0.1280010255E-01
          0                33           1            34   30     2       0.1069138923E-04      40   33    1         0.6278320118E-03      0.1154692327E-01
          0                34           1            31   31     2       0.1414751470E-04      38   30    2         0.5418281620E-03      0.1042115865E-01
          0                35           1            34   30     2       0.8666546485E-05      40   33    1         0.5216653081E-03      0.9398669467E-02

    ------------------------------------------------
       NWT REQUIRED           35 OUTER ITERATIONS 
       AND A TOTAL OF         36 INNER ITERATIONS.
    ------------------------------------------------

 OUTPUT CONTROL FOR STRESS PERIOD    1   TIME STEP    5
    PRINT BUDGET
    SAVE HEAD FOR ALL LAYERS
 SOLVING FOR ZETA FOR LAYER     1 ZONE     2

     841 UPPER PART EQS.       840 LOWER PART EQS.    BAND WIDTH + 1 =   42
 STRESS PERIOD=  1 TIMESTEP=  5 LAYER=  1 ZONE=  2 ACTIVE CELLS= 1681 NUMBER OF EQUATIONS=    1681
 UBUDSV SAVING "      ZETASRF  1" ON UNIT 55 AT TIME STEP  5, STRESS PERIOD    1


                      VOLUMETRIC SWI ZONE BUDGET FOR ENTIRE MODEL
                     AT END OF TIME STEP    5 IN STRESS PERIOD   1
                                      ZONE     1
  -----------------------------------------------------------------------------------

        CUMULATIVE VOLUMES      L**3       RATES FOR THIS TIME STEP      L**3/T
        ------------------                 ------------------------

              IN:                                      IN:
              ---                                      ---
             BOUNDARIES =      613565.0000            BOUNDARIES =        1681.0000
          CONSTANT HEAD =           0.0000         CONSTANT HEAD =           0.0000
            ZONE CHANGE =        2274.2576           ZONE CHANGE =           0.0000
       ZONE CHG TIP/TOE =        3074.9531      ZONE CHG TIP/TOE =          14.0409
            ZONE MIXING =           0.0000           ZONE MIXING =           0.0000

               TOTAL IN =      618914.1875              TOTAL IN =        1695.0409

             OUT:                                     OUT:
             ----                                     ----
             BOUNDARIES =       77969.5156            BOUNDARIES =           0.0000
          CONSTANT HEAD =           0.0000         CONSTANT HEAD =           0.0000
            ZONE CHANGE =      574979.6875           ZONE CHANGE =        1680.8555
       ZONE CHG TIP/TOE =        3074.9531      ZONE CHG TIP/TOE =          14.0409
            ZONE MIXING =           0.0000           ZONE MIXING =           0.0000

              TOTAL OUT =      656024.1250             TOTAL OUT =        1694.8964

               IN - OUT =      -37109.9375              IN - OUT =           0.1445

    PERCENT DISCREPANCY =          -5.82     PERCENT DISCREPANCY =           0.01



                      VOLUMETRIC SWI ZONE BUDGET FOR ENTIRE MODEL
                     AT END OF TIME STEP    5 IN STRESS PERIOD   1
                                      ZONE     2
  -----------------------------------------------------------------------------------

        CUMULATIVE VOLUMES      L**3       RATES FOR THIS TIME STEP      L**3/T
        ------------------                 ------------------------

              IN:                                      IN:
              ---                                      ---
             BOUNDARIES =           0.0000            BOUNDARIES =           0.0000
          CONSTANT HEAD =           0.0000         CONSTANT HEAD =           0.0000
            ZONE CHANGE =      574979.6875           ZONE CHANGE =        1680.8555
       ZONE CHG TIP/TOE =       40241.9297      ZONE CHG TIP/TOE =          14.0409
            ZONE MIXING =           0.0000           ZONE MIXING =           0.0000

               TOTAL IN =      615221.6250              TOTAL IN =        1694.8964

             OUT:                                     OUT:
             ----                                     ----
             BOUNDARIES =      535467.3125            BOUNDARIES =        1680.6714
          CONSTANT HEAD =           0.0000         CONSTANT HEAD =           0.0000
            ZONE CHANGE =       39441.2344           ZONE CHANGE =           0.0000
       ZONE CHG TIP/TOE =        3074.9531      ZONE CHG TIP/TOE =          14.0409
            ZONE MIXING =           0.0000           ZONE MIXING =           0.0000

              TOTAL OUT =      577983.5000             TOTAL OUT =        1694.7123

               IN - OUT =       37238.1250              IN - OUT =           0.1841

    PERCENT DISCREPANCY =           6.24     PERCENT DISCREPANCY =           0.01


 HEAD WILL BE SAVED ON UNIT   51 AT END OF TIME STEP    5, STRESS PERIOD    1
1
  VOLUMETRIC BUDGET FOR ENTIRE MODEL AT END OF TIME STEP    5, STRESS PERIOD   1
  ------------------------------------------------------------------------------

     CUMULATIVE VOLUMES      L**3       RATES FOR THIS TIME STEP      L**3/T
     ------------------                 ------------------------

           IN:                                      IN:
           ---                                      ---
             STORAGE =           0.0000               STORAGE =           0.0000
       CONSTANT HEAD =           0.0000         CONSTANT HEAD =           0.0000
               WELLS =      613565.0000                 WELLS =        1681.0000
     HEAD DEP BOUNDS =           0.0000       HEAD DEP BOUNDS =           0.0000
          SWIADDTOCH =           0.0000            SWIADDTOCH =           0.0000

            TOTAL IN =      613565.0000              TOTAL IN =        1681.0000

          OUT:                                     OUT:
          ----                                     ----
             STORAGE =           0.0000               STORAGE =           0.0000
       CONSTANT HEAD =           0.0000         CONSTANT HEAD =           0.0000
               WELLS =           0.0000                 WELLS =           0.0000
     HEAD DEP BOUNDS =      613436.8125       HEAD DEP BOUNDS =        1680.6714
          SWIADDTOCH =           0.0000            SWIADDTOCH =           0.0000

           TOTAL OUT =      613436.8125             TOTAL OUT =        1680.6714

            IN - OUT =         128.1875              IN - OUT =           0.3286

 PERCENT DISCREPANCY =           0.02     PERCENT DISCREPANCY =           0.02






         TIME SUMMARY AT END OF TIME STEP    5 IN STRESS PERIOD    1
                    SECONDS     MINUTES      HOURS       DAYS        YEARS
                    -----------------------------------------------------------
   TIME STEP LENGTH 6.30720E+06 1.05120E+05  1752.0      73.000     0.19986    
 STRESS PERIOD TIME 3.15360E+07 5.25600E+05  8760.0      365.00     0.99932    
         TOTAL TIME 3.15360E+07 5.25600E+05  8760.0      365.00     0.99932    
1
 
 SOLVING FOR HEAD 
                                                   Max.-Head-Change                         Max.-Flux-Residual
  Residual-Control   Outer-Iter.   Inner-Iter.     Column Row Layer    Maximum-Head-Change  Column Row Layer    Maximum-Flux-Residual          L2-NORM 
          0                 1           2            31   51     1       0.3104848397E-02      11   11    1         0.9629181089E+00      0.1220551383E+02
          0                 2           1            45   15     2       0.1761945429E-03      45   47    2         0.1191572751E-01      0.1870683814E+00
          0                 3           1            20   17     1       0.9480829678E-04      48   41    1         0.6199600775E-02      0.1209105322E+00
          0                 4           1            19   19     2       0.8437635034E-04      50   23    1         0.4348855796E-02      0.9717792067E-01
          0                 5           1            41   23     2       0.6066361950E-04      48   37    1         0.3652111966E-02      0.8269826802E-01
          0                 6           1            26   23     1       0.6781138404E-04      50   27    1         0.2872751708E-02      0.7262316313E-01
          0                 7           1            32   28     2       0.5230723338E-04      47   30    1         0.2875501743E-02      0.6461423200E-01
          0                 8           1            31   30     1       0.6577337200E-04      31   29    2         0.2448507278E-02      0.5804453871E-01
          0                 9           1            32   30     2       0.4567792958E-04      47   30    1         0.2427984183E-02      0.5215802009E-01
          0                10           1            31   31     2       0.5977819223E-04      31   29    2         0.2180469957E-02      0.4705684467E-01
                                                   Max.-Head-Change                         Max.-Flux-Residual
  Residual-Control   Outer-Iter.   Inner-Iter.     Column Row Layer    Maximum-Head-Change  Column Row Layer    Maximum-Flux-Residual          L2-NORM 
          0                11           1            33   31     2       0.3750045097E-04      47   30    1         0.2060496524E-02      0.4233664277E-01
          0                12           1            31   31     2       0.5192824637E-04      31   29    2         0.1840784439E-02      0.3819614287E-01
          0                13           1            33   31     2       0.3007863997E-04      47   30    1         0.1733942206E-02      0.3434060597E-01
          0                14           1            31   31     2       0.4404245396E-04      31   29    2         0.1518796406E-02      0.3095203293E-01
          0                15           1            33   31     2       0.2392408773E-04      47   30    1         0.1439924433E-02      0.2780191535E-01
          0                16           1            31   31     2       0.3688209275E-04      31   29    2         0.1239438345E-02      0.2502578384E-01
          0                17           1            34   30     2       0.1897238730E-04      47   30    1         0.1179769755E-02      0.2245572953E-01
          0                18           1            31   31     2       0.3061805058E-04      32   32    2         0.1007285596E-02      0.2018600468E-01
          0                19           1            34   30     2       0.1506924347E-04      47   30    1         0.9540398160E-03      0.1809444625E-01
          0                20           1            31   31     2       0.2524586985E-04      32   32    2         0.8169877696E-03      0.1624439797E-01
                                                   Max.-Head-Change                         Max.-Flux-Residual
  Residual-Control   Outer-Iter.   Inner-Iter.     Column Row Layer    Maximum-Head-Change  Column Row Layer    Maximum-Flux-Residual          L2-NORM 
          0                21           1            34   30     2       0.1196584463E-04      47   30    1         0.7620054122E-03      0.1454596718E-01
          0                22           1            31   31     2       0.2066459862E-04      32   32    2         0.6608357997E-03      0.1304371258E-01
          0                23           1            35   31     2       0.9525924343E-05      41   32    1         0.6357378918E-03      0.1167093358E-01

    ------------------------------------------------
       NWT REQUIRED           23 OUTER ITERATIONS 
       AND A TOTAL OF         24 INNER ITERATIONS.
    ------------------------------------------------

 OUTPUT CONTROL FOR STRESS PERIOD    1   TIME STEP    6
    PRINT BUDGET
    SAVE HEAD FOR ALL LAYERS
 SOLVING FOR ZETA FOR LAYER     1 ZONE     2

     921 UPPER PART EQS.       924 LOWER PART EQS.    BAND WIDTH + 1 =   44
 STRESS PERIOD=  1 TIMESTEP=  6 LAYER=  1 ZONE=  2 ACTIVE CELLS= 1845 NUMBER OF EQUATIONS=    1845
 UBUDSV SAVING "      ZETASRF  1" ON UNIT 55 AT TIME STEP  6, STRESS PERIOD    1


                      VOLUMETRIC SWI ZONE BUDGET FOR ENTIRE MODEL
                     AT END OF TIME STEP    6 IN STRESS PERIOD   1
                                      ZONE     1
  -----------------------------------------------------------------------------------

        CUMULATIVE VOLUMES      L**3       RATES FOR THIS TIME STEP      L**3/T
        ------------------                 ------------------------

              IN:                                      IN:
              ---                                      ---
             BOUNDARIES =      736278.0000            BOUNDARIES =        1681.0000
          CONSTANT HEAD =           0.0000         CONSTANT HEAD =           0.0000
            ZONE CHANGE =        3314.3096           ZONE CHANGE =          14.2473
       ZONE CHG TIP/TOE =        3074.9531      ZONE CHG TIP/TOE =           0.0000
            ZONE MIXING =           0.0000           ZONE MIXING =           0.0000

               TOTAL IN =      742667.2500              TOTAL IN =        1695.2473

             OUT:                                     OUT:
             ----                                     ----
             BOUNDARIES =      116988.8125            BOUNDARIES =         534.5109
          CONSTANT HEAD =           0.0000         CONSTANT HEAD =           0.0000
            ZONE CHANGE =      677316.7500           ZONE CHANGE =        1401.8777
       ZONE CHG TIP/TOE =        3074.9531      ZONE CHG TIP/TOE =           0.0000
            ZONE MIXING =           0.0000           ZONE MIXING =           0.0000

              TOTAL OUT =      797380.5000             TOTAL OUT =        1936.3885

               IN - OUT =      -54713.2500              IN - OUT =        -241.1412

    PERCENT DISCREPANCY =          -7.11     PERCENT DISCREPANCY =         -13.28



                      VOLUMETRIC SWI ZONE BUDGET FOR ENTIRE MODEL
                     AT END OF TIME STEP    6 IN STRESS PERIOD   1
                                      ZONE     2
  -----------------------------------------------------------------------------------

        CUMULATIVE VOLUMES      L**3       RATES FOR THIS TIME STEP      L**3/T
        ------------------                 ------------------------

              IN:                                      IN:
              ---                                      ---
             BOUNDARIES =           0.0000            BOUNDARIES =           0.0000
          CONSTANT HEAD =           0.0000         CONSTANT HEAD =           0.0000
            ZONE CHANGE =      677316.7500           ZONE CHANGE =        1401.8777
       ZONE CHG TIP/TOE =       57858.6250      ZONE CHG TIP/TOE =         241.3246
            ZONE MIXING =           0.0000           ZONE MIXING =           0.0000

               TOTAL IN =      735175.3750              TOTAL IN =        1643.2023

             OUT:                                     OUT:
             ----                                     ----
             BOUNDARIES =      619131.3750            BOUNDARIES =        1146.0826
          CONSTANT HEAD =           0.0000         CONSTANT HEAD =           0.0000
            ZONE CHANGE =       58097.9844           ZONE CHANGE =         255.5719
       ZONE CHG TIP/TOE =        3074.9531      ZONE CHG TIP/TOE =           0.0000
            ZONE MIXING =           0.0000           ZONE MIXING =           0.0000

              TOTAL OUT =      680304.3125             TOTAL OUT =        1401.6545

               IN - OUT =       54871.0625              IN - OUT =         241.5477

    PERCENT DISCREPANCY =           7.75     PERCENT DISCREPANCY =          15.87


 HEAD WILL BE SAVED ON UNIT   51 AT END OF TIME STEP    6, STRESS PERIOD    1
1
  VOLUMETRIC BUDGET FOR ENTIRE MODEL AT END OF TIME STEP    6, STRESS PERIOD   1
  ------------------------------------------------------------------------------

     CUMULATIVE VOLUMES      L**3       RATES FOR THIS TIME STEP      L**3/T
     ------------------                 ------------------------

           IN:                                      IN:
           ---                                      ---
             STORAGE =           0.0000               STORAGE =           0.0000
       CONSTANT HEAD =           0.0000         CONSTANT HEAD =           0.0000
               WELLS =      736278.0000                 WELLS =        1681.0000
     HEAD DEP BOUNDS =           0.0000       HEAD DEP BOUNDS =           0.0000
          SWIADDTOCH =           0.0000            SWIADDTOCH =           0.0000

            TOTAL IN =      736278.0000              TOTAL IN =        1681.0000

          OUT:                                     OUT:
          ----                                     ----
             STORAGE =           0.0000               STORAGE =           0.0000
       CONSTANT HEAD =           0.0000         CONSTANT HEAD =           0.0000
               WELLS =           0.0000                 WELLS =           0.0000
     HEAD DEP BOUNDS =      736120.1250       HEAD DEP BOUNDS =        1680.5935
          SWIADDTOCH =           0.0000            SWIADDTOCH =           0.0000

           TOTAL OUT =      736120.1250             TOTAL OUT =        1680.5935

            IN - OUT =         157.8750              IN - OUT =           0.4065

 PERCENT DISCREPANCY =           0.02     PERCENT DISCREPANCY =           0.02






         TIME SUMMARY AT END OF TIME STEP    6 IN STRESS PERIOD    1
                    SECONDS     MINUTES      HOURS       DAYS        YEARS
                    -----------------------------------------------------------
   TIME STEP LENGTH 6.30720E+06 1.05120E+05  1752.0      73.000     0.19986    
 STRESS PERIOD TIME 3.78432E+07 6.30720E+05  10512.      438.00      1.1992    
         TOTAL TIME 3.78432E+07 6.30720E+05  10512.      438.00      1.1992    
1
 
 SOLVING FOR HEAD 
                                                   Max.-Head-Change                         Max.-Flux-Residual
  Residual-Control   Outer-Iter.   Inner-Iter.     Column Row Layer    Maximum-Head-Change  Column Row Layer    Maximum-Flux-Residual          L2-NORM 
          0                 1           2            49   49     1       0.3159331250E-02      49   52    1        -0.6464968934E+00      0.9466775471E+01
          0                 2           1            44   16     2       0.6229301987E-03      18   14    2         0.2727720408E-01      0.4475834404E+00
          0                 3           1            21   20     1       0.2229861151E-03      46   43    1         0.1585111378E-01      0.3170474400E+00
          0                 4           1            43   21     2       0.2691314961E-03      44   20    2         0.1109346746E-01      0.2605279999E+00
          0                 5           1            31   24     1       0.1554976027E-03      46   35    1         0.1010761215E-01      0.2261938111E+00
          0                 6           1            34   28     2       0.2239298739E-03      44   28    2         0.7866387469E-02      0.1997101593E+00
          0                 7           1            31   30     1       0.1463026958E-03      46   31    1         0.8076728138E-02      0.1788116957E+00
          0                 8           1            31   31     2       0.2003601668E-03      30   30    2         0.7140009250E-02      0.1601739272E+00
          0                 9           1            31   31     2       0.1276057110E-03      46   31    1         0.6730946851E-02      0.1442850860E+00
          0                10           1            31   31     2       0.1675356209E-03      30   30    2         0.6125841786E-02      0.1297289615E+00
                                                   Max.-Head-Change                         Max.-Flux-Residual
  Residual-Control   Outer-Iter.   Inner-Iter.     Column Row Layer    Maximum-Head-Change  Column Row Layer    Maximum-Flux-Residual          L2-NORM 
          0                11           1            31   31     2       0.1070060960E-03      46   31    1         0.5630962743E-02      0.1170178310E+00
          0                12           1            30   30     2       0.1371516680E-03      30   30    2         0.5099798828E-02      0.1053749181E+00
          0                13           1            32   32     2       0.8819898779E-04      46   31    1         0.4697597079E-02      0.9509014501E-01
          0                14           1            30   30     2       0.1117635096E-03      30   30    2         0.4198977616E-02      0.8569898520E-01
          0                15           1            32   32     2       0.7215339141E-04      46   31    1         0.3900030099E-02      0.7734624319E-01
          0                16           1            30   30     2       0.9105635400E-04      37   31    2         0.3446071219E-02      0.6974435224E-01
          0                17           1            33   31     2       0.5881256149E-04      46   31    1         0.3220387193E-02      0.6295052025E-01
          0                18           1            30   30     2       0.7433944223E-04      37   31    2         0.2837194040E-02      0.5678287401E-01
          0                19           1            33   31     2       0.4788718017E-04      46   31    1         0.2645220436E-02      0.5124987227E-01
          0                20           1            30   30     2       0.6080672859E-04      37   31    2         0.2329312998E-02      0.4623778433E-01
                                                   Max.-Head-Change                         Max.-Flux-Residual
  Residual-Control   Outer-Iter.   Inner-Iter.     Column Row Layer    Maximum-Head-Change  Column Row Layer    Maximum-Flux-Residual          L2-NORM 
          0                21           1            33   31     2       0.3892294946E-04      46   35    1         0.2164850036E-02      0.4172814354E-01
          0                22           1            30   30     2       0.4981023464E-04      37   31    2         0.1907223100E-02      0.3765071102E-01
          0                23           1            33   31     2       0.3159094522E-04      46   35    1         0.1762606857E-02      0.3397354104E-01
          0                24           1            30   30     2       0.4084323351E-04      37   31    2         0.1557498078E-02      0.3065410965E-01
          0                25           1            33   31     2       0.2560602415E-04      34   30    2         0.1446263662E-02      0.2765513086E-01
          0                26           1            31   31     2       0.3351999672E-04      38   30    2         0.1272903979E-02      0.2495157279E-01
          0                27           1            33   31     2       0.2072855699E-04      34   30    2         0.1189523594E-02      0.2250560474E-01
          0                28           1            31   31     2       0.2752747362E-04      38   30    2         0.1042990246E-02      0.2030312905E-01
          0                29           1            33   31     2       0.1675942799E-04      34   30    2         0.9764260399E-03      0.1830840374E-01
          0                30           1            31   31     2       0.2260719821E-04      38   30    2         0.8523612830E-03      0.1651402228E-01
                                                   Max.-Head-Change                         Max.-Flux-Residual
  Residual-Control   Outer-Iter.   Inner-Iter.     Column Row Layer    Maximum-Head-Change  Column Row Layer    Maximum-Flux-Residual          L2-NORM 
          0                31           1            34   30     2       0.1356931594E-04      40   33    1         0.8016033336E-03      0.1488766325E-01
          0                32           1            31   31     2       0.1856140920E-04      38   30    2         0.6947557913E-03      0.1342588021E-01
          0                33           1            34   30     2       0.1098406119E-04      40   33    1         0.6661453183E-03      0.1210030768E-01
          0                34           1            31   31     2       0.1523143839E-04      31   29    2         0.5652318094E-03      0.1090972204E-01
          0                35           1            34   30     2       0.8881457026E-05      40   33    1         0.5517482538E-03      0.9829774039E-02

    ------------------------------------------------
       NWT REQUIRED           35 OUTER ITERATIONS 
       AND A TOTAL OF         36 INNER ITERATIONS.
    ------------------------------------------------

 OUTPUT CONTROL FOR STRESS PERIOD    1   TIME STEP    7
    PRINT BUDGET
    SAVE HEAD FOR ALL LAYERS
 SOLVING FOR ZETA FOR LAYER     1 ZONE     2

     841 UPPER PART EQS.       840 LOWER PART EQS.    BAND WIDTH + 1 =   42
 STRESS PERIOD=  1 TIMESTEP=  7 LAYER=  1 ZONE=  2 ACTIVE CELLS= 1681 NUMBER OF EQUATIONS=    1681
 UBUDSV SAVING "      ZETASRF  1" ON UNIT 55 AT TIME STEP  7, STRESS PERIOD    1


                      VOLUMETRIC SWI ZONE BUDGET FOR ENTIRE MODEL
                     AT END OF TIME STEP    7 IN STRESS PERIOD   1
                                      ZONE     1
  -----------------------------------------------------------------------------------

        CUMULATIVE VOLUMES      L**3       RATES FOR THIS TIME STEP      L**3/T
        ------------------                 ------------------------

              IN:                                      IN:
              ---                                      ---
             BOUNDARIES =      858991.0000            BOUNDARIES =        1681.0000
          CONSTANT HEAD =           0.0000         CONSTANT HEAD =           0.0000
            ZONE CHANGE =        3314.3096           ZONE CHANGE =           0.0000
       ZONE CHG TIP/TOE =        4099.9375      ZONE CHG TIP/TOE =          14.0409
            ZONE MIXING =           0.0000           ZONE MIXING =           0.0000

               TOTAL IN =      866405.2500              TOTAL IN =        1695.0409

             OUT:                                     OUT:
             ----                                     ----
             BOUNDARIES =      116988.8125            BOUNDARIES =           0.0000
          CONSTANT HEAD =           0.0000         CONSTANT HEAD =           0.0000
            ZONE CHANGE =      800018.7500           ZONE CHANGE =        1680.8489
       ZONE CHG TIP/TOE =        4099.9375      ZONE CHG TIP/TOE =          14.0409
            ZONE MIXING =           0.0000           ZONE MIXING =           0.0000

              TOTAL OUT =      921107.5000             TOTAL OUT =        1694.8898

               IN - OUT =      -54702.2500              IN - OUT =           0.1511

    PERCENT DISCREPANCY =          -6.12     PERCENT DISCREPANCY =           0.01



                      VOLUMETRIC SWI ZONE BUDGET FOR ENTIRE MODEL
                     AT END OF TIME STEP    7 IN STRESS PERIOD   1
                                      ZONE     2
  -----------------------------------------------------------------------------------

        CUMULATIVE VOLUMES      L**3       RATES FOR THIS TIME STEP      L**3/T
        ------------------                 ------------------------

              IN:                                      IN:
              ---                                      ---
             BOUNDARIES =           0.0000            BOUNDARIES =           0.0000
          CONSTANT HEAD =           0.0000         CONSTANT HEAD =           0.0000
            ZONE CHANGE =      800018.7500           ZONE CHANGE =        1680.8489
       ZONE CHG TIP/TOE =       58883.6094      ZONE CHG TIP/TOE =          14.0409
            ZONE MIXING =           0.0000           ZONE MIXING =           0.0000

               TOTAL IN =      858902.3750              TOTAL IN =        1694.8898

             OUT:                                     OUT:
             ----                                     ----
             BOUNDARIES =      741819.3125            BOUNDARIES =        1680.6564
          CONSTANT HEAD =           0.0000         CONSTANT HEAD =           0.0000
            ZONE CHANGE =       58097.9844           ZONE CHANGE =           0.0000
       ZONE CHG TIP/TOE =        4099.9375      ZONE CHG TIP/TOE =          14.0409
            ZONE MIXING =           0.0000           ZONE MIXING =           0.0000

              TOTAL OUT =      804017.2500             TOTAL OUT =        1694.6973

               IN - OUT =       54885.1250              IN - OUT =           0.1925

    PERCENT DISCREPANCY =           6.60     PERCENT DISCREPANCY =           0.01


 HEAD WILL BE SAVED ON UNIT   51 AT END OF TIME STEP    7, STRESS PERIOD    1
1
  VOLUMETRIC BUDGET FOR ENTIRE MODEL AT END OF TIME STEP    7, STRESS PERIOD   1
  ------------------------------------------------------------------------------

     CUMULATIVE VOLUMES      L**3       RATES FOR THIS TIME STEP      L**3/T
     ------------------                 ------------------------

           IN:                                      IN:
           ---                                      ---
             STORAGE =           0.0000               STORAGE =           0.0000
       CONSTANT HEAD =           0.0000         CONSTANT HEAD =           0.0000
               WELLS =      858991.0000                 WELLS =        1681.0000
     HEAD DEP BOUNDS =           0.0000       HEAD DEP BOUNDS =           0.0000
          SWIADDTOCH =           0.0000            SWIADDTOCH =           0.0000

            TOTAL IN =      858991.0000              TOTAL IN =        1681.0000

          OUT:                                     OUT:
          ----                                     ----
             STORAGE =           0.0000               STORAGE =           0.0000
       CONSTANT HEAD =           0.0000         CONSTANT HEAD =           0.0000
               WELLS =           0.0000                 WELLS =           0.0000
     HEAD DEP BOUNDS =      858808.0625       HEAD DEP BOUNDS =        1680.6564
          SWIADDTOCH =           0.0000            SWIADDTOCH =           0.0000

           TOTAL OUT =      858808.0625             TOTAL OUT =        1680.6564

            IN - OUT =         182.9375              IN - OUT =           0.3436

 PERCENT DISCREPANCY =           0.02     PERCENT DISCREPANCY =           0.02






         TIME SUMMARY AT END OF TIME STEP    7 IN STRESS PERIOD    1
                    SECONDS     MINUTES      HOURS       DAYS        YEARS
                    -----------------------------------------------------------
   TIME STEP LENGTH 6.30720E+06 1.05120E+05  1752.0      73.000     0.19986    
 STRESS PERIOD TIME 4.41504E+07 7.35840E+05  12264.      511.00      1.3990    
         TOTAL TIME 4.41504E+07 7.35840E+05  12264.      511.00      1.3990    
1
 
 SOLVING FOR HEAD 
                                                   Max.-Head-Change                         Max.-Flux-Residual
  Residual-Control   Outer-Iter.   Inner-Iter.     Column Row Layer    Maximum-Head-Change  Column Row Layer    Maximum-Flux-Residual          L2-NORM 
          0                 1           2            31   51     1       0.3136457308E-02      11   11    1         0.9287241584E+00      0.1200211512E+02
          0                 2           1            45   15     2       0.1203453678E-03      16   12    2         0.9621616182E-02      0.1483332511E+00
          0                 3           1            20   17     1       0.7164384090E-04      48   41    1         0.4719513251E-02      0.8986740924E-01
          0                 4           1            19   19     2       0.6147712400E-04      50   23    1         0.3194720120E-02      0.7115601358E-01
          0                 5           1            41   23     2       0.4519383014E-04      48   37    1         0.2739662937E-02      0.6040436796E-01
          0                 6           1            26   23     1       0.4929742755E-04      50   27    1         0.2107735180E-02      0.5305557810E-01
          0                 7           1            32   28     2       0.3837376071E-04      47   30    1         0.2087606358E-02      0.4718484354E-01
          0                 8           1            31   30     1       0.4792112846E-04      31   29    2         0.1787677303E-02      0.4240675253E-01
          0                 9           1            31   29     2       0.3327395189E-04      47   30    1         0.1771086301E-02      0.3809074177E-01
          0                10           1            30   30     2       0.4400231135E-04      31   29    2         0.1594757632E-02      0.3437630852E-01
                                                   Max.-Head-Change                         Max.-Flux-Residual
  Residual-Control   Outer-Iter.   Inner-Iter.     Column Row Layer    Maximum-Head-Change  Column Row Layer    Maximum-Flux-Residual          L2-NORM 
          0                11           1            33   31     2       0.2710625484E-04      47   30    1         0.1507631202E-02      0.3091014218E-01
          0                12           1            31   31     2       0.3852152516E-04      31   29    2         0.1346122137E-02      0.2788721548E-01
          0                13           1            33   31     2       0.2161190042E-04      47   30    1         0.1269545238E-02      0.2505180539E-01
          0                14           1            31   31     2       0.3289866974E-04      31   29    2         0.1109155903E-02      0.2256949681E-01
          0                15           1            33   31     2       0.1708728425E-04      47   30    1         0.1053092273E-02      0.2024764546E-01
          0                16           1            31   31     2       0.2767470575E-04      31   29    2         0.9029088740E-03      0.1820918252E-01
          0                17           1            34   30     2       0.1349160856E-04      47   30    1         0.8600366617E-03      0.1631254451E-01
          0                18           1            31   31     2       0.2302468211E-04      32   32    2         0.7323102826E-03      0.1464368337E-01
          0                19           1            34   30     2       0.1065310234E-04      47   30    1         0.6917551527E-03      0.1310015905E-01
          0                20           1            31   31     2       0.1898754963E-04      32   32    2         0.5916807651E-03      0.1173972665E-01
          0                21           1            35   31     2       0.8423638389E-05      41   32    1         0.5611225559E-03      0.1048777880E-01

    ------------------------------------------------
       NWT REQUIRED           21 OUTER ITERATIONS 
       AND A TOTAL OF         22 INNER ITERATIONS.
    ------------------------------------------------

 OUTPUT CONTROL FOR STRESS PERIOD    1   TIME STEP    8
    PRINT BUDGET
    SAVE HEAD FOR ALL LAYERS
 SOLVING FOR ZETA FOR LAYER     1 ZONE     2

     921 UPPER PART EQS.       924 LOWER PART EQS.    BAND WIDTH + 1 =   44
 STRESS PERIOD=  1 TIMESTEP=  8 LAYER=  1 ZONE=  2 ACTIVE CELLS= 1845 NUMBER OF EQUATIONS=    1845
 UBUDSV SAVING "      ZETASRF  1" ON UNIT 55 AT TIME STEP  8, STRESS PERIOD    1


                      VOLUMETRIC SWI ZONE BUDGET FOR ENTIRE MODEL
                     AT END OF TIME STEP    8 IN STRESS PERIOD   1
                                      ZONE     1
  -----------------------------------------------------------------------------------

        CUMULATIVE VOLUMES      L**3       RATES FOR THIS TIME STEP      L**3/T
        ------------------                 ------------------------

              IN:                                      IN:
              ---                                      ---
             BOUNDARIES =      981704.0000            BOUNDARIES =        1681.0000
          CONSTANT HEAD =           0.0000         CONSTANT HEAD =           0.0000
            ZONE CHANGE =        4339.2939           ZONE CHANGE =          14.0409
       ZONE CHG TIP/TOE =        4099.9375      ZONE CHG TIP/TOE =           0.0000
            ZONE MIXING =           0.0000           ZONE MIXING =           0.0000

               TOTAL IN =      990143.2500              TOTAL IN =        1695.0409

             OUT:                                     OUT:
             ----                                     ----
             BOUNDARIES =      156038.0000            BOUNDARIES =         534.9204
          CONSTANT HEAD =           0.0000         CONSTANT HEAD =           0.0000
            ZONE CHANGE =      901563.9375           ZONE CHANGE =        1391.0300
       ZONE CHG TIP/TOE =        4099.9375      ZONE CHG TIP/TOE =           0.0000
            ZONE MIXING =           0.0000           ZONE MIXING =           0.0000

              TOTAL OUT =     1061702.0000             TOTAL OUT =        1925.9504

               IN - OUT =      -71558.7500              IN - OUT =        -230.9095

    PERCENT DISCREPANCY =          -6.98     PERCENT DISCREPANCY =         -12.75



                      VOLUMETRIC SWI ZONE BUDGET FOR ENTIRE MODEL
                     AT END OF TIME STEP    8 IN STRESS PERIOD   1
                                      ZONE     2
  -----------------------------------------------------------------------------------

        CUMULATIVE VOLUMES      L**3       RATES FOR THIS TIME STEP      L**3/T
        ------------------                 ------------------------

              IN:                                      IN:
              ---                                      ---
             BOUNDARIES =           0.0000            BOUNDARIES =           0.0000
          CONSTANT HEAD =           0.0000         CONSTANT HEAD =           0.0000
            ZONE CHANGE =      901563.9375           ZONE CHANGE =        1391.0300
       ZONE CHG TIP/TOE =       75752.0391      ZONE CHG TIP/TOE =         231.0744
            ZONE MIXING =           0.0000           ZONE MIXING =           0.0000

               TOTAL IN =      977316.0000              TOTAL IN =        1622.1045

             OUT:                                     OUT:
             ----                                     ----
             BOUNDARIES =      825456.5000            BOUNDARIES =        1145.7145
          CONSTANT HEAD =           0.0000         CONSTANT HEAD =           0.0000
            ZONE CHANGE =       75991.3984           ZONE CHANGE =         245.1153
       ZONE CHG TIP/TOE =        4099.9375      ZONE CHG TIP/TOE =           0.0000
            ZONE MIXING =           0.0000           ZONE MIXING =           0.0000

              TOTAL OUT =      905547.8125             TOTAL OUT =        1390.8298

               IN - OUT =       71768.1875              IN - OUT =         231.2747

    PERCENT DISCREPANCY =           7.62     PERCENT DISCREPANCY =          15.35


 HEAD WILL BE SAVED ON UNIT   51 AT END OF TIME STEP    8, STRESS PERIOD    1
1
  VOLUMETRIC BUDGET FOR ENTIRE MODEL AT END OF TIME STEP    8, STRESS PERIOD   1
  ------------------------------------------------------------------------------

     CUMULATIVE VOLUMES      L**3       RATES FOR THIS TIME STEP      L**3/T
     ------------------                 ------------------------

           IN:                                      IN:
           ---                                      ---
             STORAGE =           0.0000               STORAGE =           0.0000
       CONSTANT HEAD =           0.0000         CONSTANT HEAD =           0.0000
               WELLS =      981704.0000                 WELLS =        1681.0000
     HEAD DEP BOUNDS =           0.0000       HEAD DEP BOUNDS =           0.0000
          SWIADDTOCH =           0.0000            SWIADDTOCH =           0.0000

            TOTAL IN =      981704.0000              TOTAL IN =        1681.0000

          OUT:                                     OUT:
          ----                                     ----
             STORAGE =           0.0000               STORAGE =           0.0000
       CONSTANT HEAD =           0.0000         CONSTANT HEAD =           0.0000
               WELLS =           0.0000                 WELLS =           0.0000
     HEAD DEP BOUNDS =      981494.3750       HEAD DEP BOUNDS =        1680.6349
          SWIADDTOCH =           0.0000            SWIADDTOCH =           0.0000

           TOTAL OUT =      981494.3750             TOTAL OUT =        1680.6349

            IN - OUT =         209.6250              IN - OUT =           0.3651

 PERCENT DISCREPANCY =           0.02     PERCENT DISCREPANCY =           0.02






         TIME SUMMARY AT END OF TIME STEP    8 IN STRESS PERIOD    1
                    SECONDS     MINUTES      HOURS       DAYS        YEARS
                    -----------------------------------------------------------
   TIME STEP LENGTH 6.30720E+06 1.05120E+05  1752.0      73.000     0.19986    
 STRESS PERIOD TIME 5.04576E+07 8.40960E+05  14016.      584.00      1.5989    
         TOTAL TIME 5.04576E+07 8.40960E+05  14016.      584.00      1.5989    
1
 
 SOLVING FOR HEAD 
                                                   Max.-Head-Change                         Max.-Flux-Residual
  Residual-Control   Outer-Iter.   Inner-Iter.     Column Row Layer    Maximum-Head-Change  Column Row Layer    Maximum-Flux-Residual          L2-NORM 
          0                 1           2            49   49     1       0.3298350477E-02      49   52    1        -0.7256259830E+00      0.1037853196E+02
          0                 2           1            44   16     2       0.6773047364E-03      18   14    2         0.2954150462E-01      0.4869832836E+00
          0                 3           1            21   20     1       0.2398293961E-03      46   43    1         0.1730907197E-01      0.3443999043E+00
          0                 4           1            43   21     2       0.2970068542E-03      44   20    2         0.1202344997E-01      0.2818128101E+00
          0                 5           1            31   24     1       0.1650401180E-03      46   35    1         0.1090729661E-01      0.2440207509E+00
          0                 6           1            34   28     2       0.2467267237E-03      36   28    2         0.8445648119E-02      0.2150906042E+00
          0                 7           1            31   30     1       0.1547101608E-03      46   31    1         0.8706943949E-02      0.1923644478E+00
          0                 8           1            31   31     2       0.2215522172E-03      30   30    2         0.7687087020E-02      0.1721003632E+00
          0                 9           1            31   31     2       0.1344654196E-03      46   31    1         0.7254938691E-02      0.1548748287E+00
          0                10           1            31   31     2       0.1849270976E-03      30   30    2         0.6582673080E-02      0.1390900669E+00
                                                   Max.-Head-Change                         Max.-Flux-Residual
  Residual-Control   Outer-Iter.   Inner-Iter.     Column Row Layer    Maximum-Head-Change  Column Row Layer    Maximum-Flux-Residual          L2-NORM 
          0                11           1            31   31     2       0.1123006761E-03      46   31    1         0.6065481607E-02      0.1253694191E+00
          0                12           1            31   31     2       0.1511842846E-03      30   30    2         0.5467558165E-02      0.1127556237E+00
          0                13           1            32   32     2       0.9225031132E-04      46   31    1         0.5051925649E-02      0.1016762924E+00
          0                14           1            30   30     2       0.1230881683E-03      30   30    2         0.4491494844E-02      0.9152400098E-01
          0                15           1            32   32     2       0.7519275084E-04      46   31    1         0.4184663109E-02      0.8253772113E-01
          0                16           1            30   30     2       0.1002122594E-03      30   30    2         0.3674281593E-02      0.7433679214E-01
          0                17           1            33   31     2       0.6114677955E-04      46   31    1         0.3445256095E-02      0.6703695515E-01
          0                18           1            30   30     2       0.8170554965E-04      37   31    2         0.3003568090E-02      0.6039669767E-01
          0                19           1            33   31     2       0.4964147328E-04      46   31    1         0.2819416569E-02      0.5446081490E-01
          0                20           1            30   30     2       0.6672888882E-04      37   31    2         0.2456547375E-02      0.4907554828E-01
                                                   Max.-Head-Change                         Max.-Flux-Residual
  Residual-Control   Outer-Iter.   Inner-Iter.     Column Row Layer    Maximum-Head-Change  Column Row Layer    Maximum-Flux-Residual          L2-NORM 
          0                21           1            33   31     2       0.4023386415E-04      46   35    1         0.2295757231E-02      0.4424525389E-01
          0                22           1            31   31     2       0.5457368481E-04      37   31    2         0.2003649155E-02      0.3987296778E-01
          0                23           1            33   31     2       0.3256290717E-04      46   35    1         0.1859887746E-02      0.3594095433E-01
          0                24           1            31   31     2       0.4467937027E-04      38   30    2         0.1638773304E-02      0.3238864861E-01
          0                25           1            33   31     2       0.2631951116E-04      34   30    2         0.1524938390E-02      0.2918758341E-01
          0                26           1            31   31     2       0.3659740087E-04      38   30    2         0.1341200515E-02      0.2630033350E-01
          0                27           1            33   31     2       0.2124582823E-04      34   30    2         0.1249845037E-02      0.2369456912E-01
          0                28           1            31   31     2       0.2998083185E-04      38   30    2         0.1094653284E-02      0.2134748823E-01
          0                29           1            34   30     2       0.1716862966E-04      40   33    1         0.1025448275E-02      0.1922683524E-01
          0                30           1            31   31     2       0.2455493772E-04      38   30    2         0.8909787775E-03      0.1731892147E-01
                                                   Max.-Head-Change                         Max.-Flux-Residual
  Residual-Control   Outer-Iter.   Inner-Iter.     Column Row Layer    Maximum-Head-Change  Column Row Layer    Maximum-Flux-Residual          L2-NORM 
          0                31           1            34   30     2       0.1387542443E-04      40   33    1         0.8516844775E-03      0.1559371093E-01
          0                32           1            31   31     2       0.2010049233E-04      31   29    2         0.7235164591E-03      0.1404308081E-01
          0                33           1            34   30     2       0.1120080668E-04      40   33    1         0.7048865399E-03      0.1264024884E-01
          0                34           1            31   31     2       0.1644131856E-04      31   29    2         0.5894639189E-03      0.1138039629E-01
          0                35           1            34   30     2       0.9031136844E-05      40   33    1         0.5811846764E-03      0.1024035390E-01

    ------------------------------------------------
       NWT REQUIRED           35 OUTER ITERATIONS 
       AND A TOTAL OF         36 INNER ITERATIONS.
    ------------------------------------------------

 OUTPUT CONTROL FOR STRESS PERIOD    1   TIME STEP    9
    PRINT BUDGET
    SAVE HEAD FOR ALL LAYERS
 SOLVING FOR ZETA FOR LAYER     1 ZONE     2

     841 UPPER PART EQS.       840 LOWER PART EQS.    BAND WIDTH + 1 =   42
 STRESS PERIOD=  1 TIMESTEP=  9 LAYER=  1 ZONE=  2 ACTIVE CELLS= 1681 NUMBER OF EQUATIONS=    1681
 UBUDSV SAVING "      ZETASRF  1" ON UNIT 55 AT TIME STEP  9, STRESS PERIOD    1


                      VOLUMETRIC SWI ZONE BUDGET FOR ENTIRE MODEL
                     AT END OF TIME STEP    9 IN STRESS PERIOD   1
                                      ZONE     1
  -----------------------------------------------------------------------------------

        CUMULATIVE VOLUMES      L**3       RATES FOR THIS TIME STEP      L**3/T
        ------------------                 ------------------------

              IN:                                      IN:
              ---                                      ---
             BOUNDARIES =     1104417.0000            BOUNDARIES =        1681.0000
          CONSTANT HEAD =           0.0000         CONSTANT HEAD =           0.0000
            ZONE CHANGE =        4339.2939           ZONE CHANGE =           0.0000
       ZONE CHG TIP/TOE =        5124.9219      ZONE CHG TIP/TOE =          14.0409
            ZONE MIXING =           0.0000           ZONE MIXING =           0.0000

               TOTAL IN =     1113881.1250              TOTAL IN =        1695.0409

             OUT:                                     OUT:
             ----                                     ----
             BOUNDARIES =      156038.0000            BOUNDARIES =           0.0000
          CONSTANT HEAD =           0.0000         CONSTANT HEAD =           0.0000
            ZONE CHANGE =     1024265.4375           ZONE CHANGE =        1680.8427
       ZONE CHG TIP/TOE =        5124.9219      ZONE CHG TIP/TOE =          14.0409
            ZONE MIXING =           0.0000           ZONE MIXING =           0.0000

              TOTAL OUT =     1185428.3750             TOTAL OUT =        1694.8835

               IN - OUT =      -71547.2500              IN - OUT =           0.1573

    PERCENT DISCREPANCY =          -6.22     PERCENT DISCREPANCY =           0.01



                      VOLUMETRIC SWI ZONE BUDGET FOR ENTIRE MODEL
                     AT END OF TIME STEP    9 IN STRESS PERIOD   1
                                      ZONE     2
  -----------------------------------------------------------------------------------

        CUMULATIVE VOLUMES      L**3       RATES FOR THIS TIME STEP      L**3/T
        ------------------                 ------------------------

              IN:                                      IN:
              ---                                      ---
             BOUNDARIES =           0.0000            BOUNDARIES =           0.0000
          CONSTANT HEAD =           0.0000         CONSTANT HEAD =           0.0000
            ZONE CHANGE =     1024265.4375           ZONE CHANGE =        1680.8427
       ZONE CHG TIP/TOE =       76777.0234      ZONE CHG TIP/TOE =          14.0409
            ZONE MIXING =           0.0000           ZONE MIXING =           0.0000

               TOTAL IN =     1101042.5000              TOTAL IN =        1694.8835

             OUT:                                     OUT:
             ----                                     ----
             BOUNDARIES =      948143.3750            BOUNDARIES =        1680.6422
          CONSTANT HEAD =           0.0000         CONSTANT HEAD =           0.0000
            ZONE CHANGE =       75991.3984           ZONE CHANGE =           0.0000
       ZONE CHG TIP/TOE =        5124.9219      ZONE CHG TIP/TOE =          14.0409
            ZONE MIXING =           0.0000           ZONE MIXING =           0.0000

              TOTAL OUT =     1029259.6875             TOTAL OUT =        1694.6831

               IN - OUT =       71782.8125              IN - OUT =           0.2004

    PERCENT DISCREPANCY =           6.74     PERCENT DISCREPANCY =           0.01


 HEAD WILL BE SAVED ON UNIT   51 AT END OF TIME STEP    9, STRESS PERIOD    1
1
  VOLUMETRIC BUDGET FOR ENTIRE MODEL AT END OF TIME STEP    9, STRESS PERIOD   1
  ------------------------------------------------------------------------------

     CUMULATIVE VOLUMES      L**3       RATES FOR THIS TIME STEP      L**3/T
     ------------------                 ------------------------

           IN:                                      IN:
           ---                                      ---
             STORAGE =           0.0000               STORAGE =           0.0000
       CONSTANT HEAD =           0.0000         CONSTANT HEAD =           0.0000
               WELLS =     1104417.0000                 WELLS =        1681.0000
     HEAD DEP BOUNDS =           0.0000       HEAD DEP BOUNDS =           0.0000
          SWIADDTOCH =           0.0000            SWIADDTOCH =           0.0000

            TOTAL IN =     1104417.0000              TOTAL IN =        1681.0000

          OUT:                                     OUT:
          ----                                     ----
             STORAGE =           0.0000               STORAGE =           0.0000
       CONSTANT HEAD =           0.0000         CONSTANT HEAD =           0.0000
               WELLS =           0.0000                 WELLS =           0.0000
     HEAD DEP BOUNDS =     1104181.2500       HEAD DEP BOUNDS =        1680.6422
          SWIADDTOCH =           0.0000            SWIADDTOCH =           0.0000

           TOTAL OUT =     1104181.2500             TOTAL OUT =        1680.6422

            IN - OUT =         235.7500              IN - OUT =           0.3578

 PERCENT DISCREPANCY =           0.02     PERCENT DISCREPANCY =           0.02






         TIME SUMMARY AT END OF TIME STEP    9 IN STRESS PERIOD    1
                    SECONDS     MINUTES      HOURS       DAYS        YEARS
                    -----------------------------------------------------------
   TIME STEP LENGTH 6.30720E+06 1.05120E+05  1752.0      73.000     0.19986    
 STRESS PERIOD TIME 5.67648E+07 9.46080E+05  15768.      657.00      1.7988    
         TOTAL TIME 5.67648E+07 9.46080E+05  15768.      657.00      1.7988    
1
 
 SOLVING FOR HEAD 
                                                   Max.-Head-Change                         Max.-Flux-Residual
  Residual-Control   Outer-Iter.   Inner-Iter.     Column Row Layer    Maximum-Head-Change  Column Row Layer    Maximum-Flux-Residual          L2-NORM 
          0                 1           2            31   51     1       0.3130032391E-02      11   11    1         0.8809909783E+00      0.1163504933E+02
          0                 2           1            44   14     2       0.6765893462E-04      16   12    2         0.7002120590E-02      0.1097824665E+00
          0                 3           1            19   16     1       0.4069888964E-04      48   33    1         0.2976139831E-02      0.5454982841E-01
          0                 4           1            20   18     2       0.3503727687E-04      46   18    2         0.1744378674E-02      0.4007027560E-01
          0                 5           1            23   21     2       0.2623396134E-04      48   37    1         0.1540959522E-02      0.3366607479E-01
          0                 6           1            27   22     1       0.2853622787E-04      46   26    2         0.1153439324E-02      0.2963545894E-01
          0                 7           1            30   26     2       0.2159169985E-04      48   33    1         0.1209802919E-02      0.2637697768E-01
          0                 8           1            30   28     2       0.2794981891E-04      30   26    2         0.1017765830E-02      0.2372085682E-01
          0                 9           1            31   29     2       0.1823839047E-04      48   33    1         0.1016215786E-02      0.2128931471E-01
          0                10           1            31   29     2       0.2595067891E-04      31   29    2         0.9001362710E-03      0.1919750879E-01
                                                   Max.-Head-Change                         Max.-Flux-Residual
  Residual-Control   Outer-Iter.   Inner-Iter.     Column Row Layer    Maximum-Head-Change  Column Row Layer    Maximum-Flux-Residual          L2-NORM 
          0                11           1            30   30     2       0.1458849866E-04      48   33    1         0.8631189922E-03      0.1723063572E-01
          0                12           1            30   30     2       0.2289926370E-04      31   29    2         0.7544394458E-03      0.1551508916E-01
          0                13           1            30   30     2       0.1146590442E-04      48   33    1         0.7279383326E-03      0.1389959255E-01
          0                14           1            31   31     2       0.1962494385E-04      31   29    2         0.6166469680E-03      0.1248390278E-01
          0                15           1            30   31     1       0.8968507889E-05      48   33    1         0.6060279193E-03      0.1115915088E-01

    ------------------------------------------------
       NWT REQUIRED           15 OUTER ITERATIONS 
       AND A TOTAL OF         16 INNER ITERATIONS.
    ------------------------------------------------

 OUTPUT CONTROL FOR STRESS PERIOD    1   TIME STEP   10
    PRINT BUDGET
    SAVE HEAD FOR ALL LAYERS
 SOLVING FOR ZETA FOR LAYER     1 ZONE     2

     921 UPPER PART EQS.       924 LOWER PART EQS.    BAND WIDTH + 1 =   44
 STRESS PERIOD=  1 TIMESTEP= 10 LAYER=  1 ZONE=  2 ACTIVE CELLS= 1845 NUMBER OF EQUATIONS=    1845
 UBUDSV SAVING "      ZETASRF  1" ON UNIT 55 AT TIME STEP 10, STRESS PERIOD    1


                      VOLUMETRIC SWI ZONE BUDGET FOR ENTIRE MODEL
                     AT END OF TIME STEP   10 IN STRESS PERIOD   1
                                      ZONE     1
  -----------------------------------------------------------------------------------

        CUMULATIVE VOLUMES      L**3       RATES FOR THIS TIME STEP      L**3/T
        ------------------                 ------------------------

              IN:                                      IN:
              ---                                      ---
             BOUNDARIES =     1227130.0000            BOUNDARIES =        1681.0000
          CONSTANT HEAD =           0.0000         CONSTANT HEAD =           0.0000
            ZONE CHANGE =        5364.2783           ZONE CHANGE =          14.0409
       ZONE CHG TIP/TOE =        5124.9219      ZONE CHG TIP/TOE =           0.0000
            ZONE MIXING =           0.0000           ZONE MIXING =           0.0000

               TOTAL IN =     1237619.1250              TOTAL IN =        1695.0409

             OUT:                                     OUT:
             ----                                     ----
             BOUNDARIES =      195120.0469            BOUNDARIES =         535.3705
          CONSTANT HEAD =           0.0000         CONSTANT HEAD =           0.0000
            ZONE CHANGE =     1124945.1250           ZONE CHANGE =        1379.1741
       ZONE CHG TIP/TOE =        5124.9219      ZONE CHG TIP/TOE =           0.0000
            ZONE MIXING =           0.0000           ZONE MIXING =           0.0000

              TOTAL OUT =     1325190.0000             TOTAL OUT =        1914.5447

               IN - OUT =      -87570.8750              IN - OUT =        -219.5038

    PERCENT DISCREPANCY =          -6.83     PERCENT DISCREPANCY =         -12.16



                      VOLUMETRIC SWI ZONE BUDGET FOR ENTIRE MODEL
                     AT END OF TIME STEP   10 IN STRESS PERIOD   1
                                      ZONE     2
  -----------------------------------------------------------------------------------

        CUMULATIVE VOLUMES      L**3       RATES FOR THIS TIME STEP      L**3/T
        ------------------                 ------------------------

              IN:                                      IN:
              ---                                      ---
             BOUNDARIES =           0.0000            BOUNDARIES =           0.0000
          CONSTANT HEAD =           0.0000         CONSTANT HEAD =           0.0000
            ZONE CHANGE =     1124945.1250           ZONE CHANGE =        1379.1741
       ZONE CHG TIP/TOE =       92813.6719      ZONE CHG TIP/TOE =         219.6802
            ZONE MIXING =           0.0000           ZONE MIXING =           0.0000

               TOTAL IN =     1217758.7500              TOTAL IN =        1598.8542

             OUT:                                     OUT:
             ----                                     ----
             BOUNDARIES =     1031745.9375            BOUNDARIES =        1145.2402
          CONSTANT HEAD =           0.0000         CONSTANT HEAD =           0.0000
            ZONE CHANGE =       93053.0312           ZONE CHANGE =         233.7211
       ZONE CHG TIP/TOE =        5124.9219      ZONE CHG TIP/TOE =           0.0000
            ZONE MIXING =           0.0000           ZONE MIXING =           0.0000

              TOTAL OUT =     1129923.8750             TOTAL OUT =        1378.9613

               IN - OUT =       87834.8750              IN - OUT =         219.8929

    PERCENT DISCREPANCY =           7.48     PERCENT DISCREPANCY =          14.77


 HEAD WILL BE SAVED ON UNIT   51 AT END OF TIME STEP   10, STRESS PERIOD    1
1
  VOLUMETRIC BUDGET FOR ENTIRE MODEL AT END OF TIME STEP   10, STRESS PERIOD   1
  ------------------------------------------------------------------------------

     CUMULATIVE VOLUMES      L**3       RATES FOR THIS TIME STEP      L**3/T
     ------------------                 ------------------------

           IN:                                      IN:
           ---                                      ---
             STORAGE =           0.0000               STORAGE =           0.0000
       CONSTANT HEAD =           0.0000         CONSTANT HEAD =           0.0000
               WELLS =     1227130.0000                 WELLS =        1681.0000
     HEAD DEP BOUNDS =           0.0000       HEAD DEP BOUNDS =           0.0000
          SWIADDTOCH =           0.0000            SWIADDTOCH =           0.0000

            TOTAL IN =     1227130.0000              TOTAL IN =        1681.0000

          OUT:                                     OUT:
          ----                                     ----
             STORAGE =           0.0000               STORAGE =           0.0000
       CONSTANT HEAD =           0.0000         CONSTANT HEAD =           0.0000
               WELLS =           0.0000                 WELLS =           0.0000
     HEAD DEP BOUNDS =     1226865.8750       HEAD DEP BOUNDS =        1680.6107
          SWIADDTOCH =           0.0000            SWIADDTOCH =           0.0000

           TOTAL OUT =     1226865.8750             TOTAL OUT =        1680.6107

            IN - OUT =         264.1250              IN - OUT =           0.3893

 PERCENT DISCREPANCY =           0.02     PERCENT DISCREPANCY =           0.02






         TIME SUMMARY AT END OF TIME STEP   10 IN STRESS PERIOD    1
                    SECONDS     MINUTES      HOURS       DAYS        YEARS
                    -----------------------------------------------------------
   TIME STEP LENGTH 6.30720E+06 1.05120E+05  1752.0      73.000     0.19986    
 STRESS PERIOD TIME 6.30720E+07 1.05120E+06  17520.      730.00      1.9986    
         TOTAL TIME 6.30720E+07 1.05120E+06  17520.      730.00      1.9986    
1
 
 SOLVING FOR HEAD 
                                                   Max.-Head-Change                         Max.-Flux-Residual
  Residual-Control   Outer-Iter.   Inner-Iter.     Column Row Layer    Maximum-Head-Change  Column Row Layer    Maximum-Flux-Residual          L2-NORM 
          0                 1           2            49   49     1       0.3467208727E-02      10   13    1        -0.8145270641E+00      0.1164027280E+02
          0                 2           1            44   16     2       0.7392688397E-03      18   14    2         0.3229188933E-01      0.5358425363E+00
          0                 3           1            21   20     1       0.2614603135E-03      46   43    1         0.1907627879E-01      0.3799017861E+00
          0                 4           1            43   21     2       0.3316377593E-03      44   20    2         0.1319517150E-01      0.3093245273E+00
          0                 5           1            31   24     1       0.1778704295E-03      46   35    1         0.1187986341E-01      0.2672772808E+00
          0                 6           1            34   28     2       0.2762062266E-03      36   24    2         0.9219715689E-02      0.2351113106E+00
          0                 7           1            31   30     1       0.1659055162E-03      46   31    1         0.9480000973E-02      0.2100423649E+00
          0                 8           1            31   31     2       0.2496603096E-03      30   30    2         0.8398781485E-02      0.1876194495E+00
          0                 9           1            31   31     2       0.1431739987E-03      46   31    1         0.7902102702E-02      0.1686514349E+00
          0                10           1            31   31     2       0.2088015671E-03      30   30    2         0.7175798559E-02      0.1512218496E+00
                                                   Max.-Head-Change                         Max.-Flux-Residual
  Residual-Control   Outer-Iter.   Inner-Iter.     Column Row Layer    Maximum-Head-Change  Column Row Layer    Maximum-Flux-Residual          L2-NORM 
          0                11           1            32   32     2       0.1188256943E-03      46   31    1         0.6602971570E-02      0.1361302798E+00
          0                12           1            31   31     2       0.1707483237E-03      30   30    2         0.5941112698E-02      0.1222334276E+00
          0                13           1            32   32     2       0.9717225085E-04      46   31    1         0.5490499700E-02      0.1100521814E+00
          0                14           1            31   31     2       0.1385215461E-03      30   30    2         0.4862857500E-02      0.9890565298E-01
          0                15           1            33   31     2       0.7890161401E-04      46   31    1         0.4534535782E-02      0.8906790821E-01
          0                16           1            31   31     2       0.1124465877E-03      30   30    2         0.3964137351E-02      0.8008747358E-01
          0                17           1            33   31     2       0.6394699601E-04      46   31    1         0.3719075620E-02      0.7212332137E-01
          0                18           1            31   31     2       0.9146578068E-04      30   30    2         0.3226338415E-02      0.6487013345E-01
          0                19           1            33   31     2       0.5172073686E-04      46   31    1         0.3029563795E-02      0.5841208657E-01
          0                20           1            31   31     2       0.7450025411E-04      30   30    2         0.2623613670E-02      0.5254503557E-01
                                                   Max.-Head-Change                         Max.-Flux-Residual
  Residual-Control   Outer-Iter.   Inner-Iter.     Column Row Layer    Maximum-Head-Change  Column Row Layer    Maximum-Flux-Residual          L2-NORM 
          0                21           1            33   31     2       0.4177470614E-04      46   31    1         0.2451516352E-02      0.4730466843E-01
          0                22           1            31   31     2       0.6072617448E-04      38   30    2         0.2134341120E-02      0.4255485651E-01
          0                23           1            33   31     2       0.3370306762E-04      34   30    2         0.1978209283E-02      0.3830196359E-01
          0                24           1            31   31     2       0.4951646760E-04      38   30    2         0.1743716432E-02      0.3445489638E-01
          0                25           1            33   31     2       0.2716237965E-04      34   30    2         0.1617878403E-02      0.3100363779E-01
          0                26           1            31   31     2       0.4037430664E-04      38   30    2         0.1420686321E-02      0.2788719669E-01
          0                27           1            34   30     2       0.2191868054E-04      40   33    1         0.1325558453E-02      0.2508701923E-01
          0                28           1            31   31     2       0.3290227728E-04      38   30    2         0.1154369792E-02      0.2256268266E-01
          0                29           1            34   30     2       0.1769954956E-04      40   33    1         0.1099857339E-02      0.2029207294E-01
          0                30           1            31   31     2       0.2679723890E-04      31   29    2         0.9358685601E-03      0.1824765448E-01
                                                   Max.-Head-Change                         Max.-Flux-Residual
  Residual-Control   Outer-Iter.   Inner-Iter.     Column Row Layer    Maximum-Head-Change  Column Row Layer    Maximum-Flux-Residual          L2-NORM 
          0                31           1            34   30     2       0.1427967227E-04      40   33    1         0.9092226263E-03      0.1640728437E-01
          0                32           1            31   31     2       0.2180708674E-04      31   29    2         0.7606143000E-03      0.1475204692E-01
          0                33           1            34   30     2       0.1151006324E-04      40   33    1         0.7486435322E-03      0.1326119344E-01
          0                34           1            31   31     2       0.1772882409E-04      31   29    2         0.6175732808E-03      0.1192155047E-01
          0                35           1            34   30     2       0.9269330961E-05      40   33    1         0.6138551795E-03      0.1071453022E-01

    ------------------------------------------------
       NWT REQUIRED           35 OUTER ITERATIONS 
       AND A TOTAL OF         36 INNER ITERATIONS.
    ------------------------------------------------

 OUTPUT CONTROL FOR STRESS PERIOD    1   TIME STEP   11
    SAVE HEAD FOR ALL LAYERS
 SOLVING FOR ZETA FOR LAYER     1 ZONE     2

     841 UPPER PART EQS.       840 LOWER PART EQS.    BAND WIDTH + 1 =   42
 STRESS PERIOD=  1 TIMESTEP= 11 LAYER=  1 ZONE=  2 ACTIVE CELLS= 1681 NUMBER OF EQUATIONS=    1681
 UBUDSV SAVING "      ZETASRF  1" ON UNIT 55 AT TIME STEP 11, STRESS PERIOD    1

 HEAD WILL BE SAVED ON UNIT   51 AT END OF TIME STEP   11, STRESS PERIOD    1
 
 SOLVING FOR HEAD 
                                                   Max.-Head-Change                         Max.-Flux-Residual
  Residual-Control   Outer-Iter.   Inner-Iter.     Column Row Layer    Maximum-Head-Change  Column Row Layer    Maximum-Flux-Residual          L2-NORM 
          0                 1           2            31   51     1       0.3077101106E-02      31   51    1         0.8594686636E+00      0.1108625176E+02
          0                 2           1            38   54     2      -0.5377078018E-04      38   54    2        -0.5273519838E-02      0.8821792337E-01
          0                 3           1            46   50     2      -0.2053925828E-04      50   47    1        -0.1827784864E-02      0.3219992325E-01
          0                 4           1            48   49     1      -0.1062945869E-04      48   49    1        -0.1039407372E-02      0.1444072912E-01
          0                 5           1            46   48     2      -0.6653140782E-05      17   47    2        -0.5704689904E-03      0.7620628448E-02

    ------------------------------------------------
       NWT REQUIRED            5 OUTER ITERATIONS 
       AND A TOTAL OF          6 INNER ITERATIONS.
    ------------------------------------------------

 OUTPUT CONTROL FOR STRESS PERIOD    1   TIME STEP   12
    SAVE HEAD FOR ALL LAYERS
 SOLVING FOR ZETA FOR LAYER     1 ZONE     2

     921 UPPER PART EQS.       924 LOWER PART EQS.    BAND WIDTH + 1 =   44
 STRESS PERIOD=  1 TIMESTEP= 12 LAYER=  1 ZONE=  2 ACTIVE CELLS= 1845 NUMBER OF EQUATIONS=    1845
 UBUDSV SAVING "      ZETASRF  1" ON UNIT 55 AT TIME STEP 12, STRESS PERIOD    1

 HEAD WILL BE SAVED ON UNIT   51 AT END OF TIME STEP   12, STRESS PERIOD    1
 
 SOLVING FOR HEAD 
                                                   Max.-Head-Change                         Max.-Flux-Residual
  Residual-Control   Outer-Iter.   Inner-Iter.     Column Row Layer    Maximum-Head-Change  Column Row Layer    Maximum-Flux-Residual          L2-NORM 
          0                 1           2            49   49     1       0.3663028824E-02      48   52    1        -0.9174107567E+00      0.1324084374E+02
          0                 2           1            44   16     2       0.7993979091E-03      18   14    2         0.3543107212E-01      0.5877573019E+00
          0                 3           1            21   20     1       0.2848067599E-03      46   43    1         0.2091160541E-01      0.4166896371E+00
          0                 4           1            43   21     2       0.3657995821E-03      44   20    2         0.1444351454E-01      0.3366663308E+00
          0                 5           1            31   24     1       0.1895595893E-03      46   35    1         0.1277992633E-01      0.2899504899E+00
          0                 6           1            35   27     2       0.3021466624E-03      36   24    2         0.9937459853E-02      0.2543272022E+00
          0                 7           1            31   30     1       0.1762127115E-03      46   31    1         0.1017935216E-01      0.2269644352E+00
          0                 8           1            31   31     2       0.2754675803E-03      30   30    2         0.9048902522E-02      0.2024018223E+00
          0                 9           1            31   31     2       0.1515969616E-03      46   31    1         0.8480090095E-02      0.1817818135E+00
          0                10           1            31   31     2       0.2309382212E-03      30   30    2         0.7731128899E-02      0.1627567784E+00
                                                   Max.-Head-Change                         Max.-Flux-Residual
  Residual-Control   Outer-Iter.   Inner-Iter.     Column Row Layer    Maximum-Head-Change  Column Row Layer    Maximum-Flux-Residual          L2-NORM 
          0                11           1            32   32     2       0.1253694803E-03      46   31    1         0.7076125289E-02      0.1463709445E+00
          0                12           1            31   31     2       0.1887999703E-03      30   30    2         0.6387920099E-02      0.1312419768E+00
          0                13           1            32   32     2       0.1021234608E-03      46   31    1         0.5869767349E-02      0.1180350382E+00
          0                14           1            31   31     2       0.1529875217E-03      30   30    2         0.5214805413E-02      0.1059309595E+00
          0                15           1            33   31     2       0.8268812646E-04      46   31    1         0.4831689351E-02      0.9528469677E-01
          0                16           1            31   31     2       0.1239847072E-03      30   30    2         0.4238802337E-02      0.8555671182E-01
          0                17           1            33   31     2       0.6680824827E-04      46   31    1         0.3946214774E-02      0.7695404709E-01
          0                18           1            31   31     2       0.1005832865E-03      30   30    2         0.3439331566E-02      0.6911711185E-01
          0                19           1            33   31     2       0.5387935227E-04      46   31    1         0.3198476899E-02      0.6215847571E-01
          0                20           1            31   31     2       0.8169413391E-04      30   30    2         0.2788042601E-02      0.5583603154E-01
                                                   Max.-Head-Change                         Max.-Flux-Residual
  Residual-Control   Outer-Iter.   Inner-Iter.     Column Row Layer    Maximum-Head-Change  Column Row Layer    Maximum-Flux-Residual          L2-NORM 
          0                21           1            33   31     2       0.4339989251E-04      46   31    1         0.2573650562E-02      0.5020327577E-01
          0                22           1            31   31     2       0.6637866192E-04      38   30    2         0.2262951658E-02      0.4509861134E-01
          0                23           1            33   31     2       0.3492324457E-04      34   30    2         0.2090691278E-02      0.4053914719E-01
          0                24           1            31   31     2       0.5393984650E-04      38   30    2         0.1841686091E-02      0.3641620135E-01
          0                25           1            34   30     2       0.2811186018E-04      34   30    2         0.1703382772E-02      0.3272641103E-01
          0                26           1            31   31     2       0.4382461083E-04      38   30    2         0.1494722184E-02      0.2939578531E-01
          0                27           1            34   30     2       0.2266887866E-04      40   33    1         0.1411628406E-02      0.2641050002E-01
          0                28           1            31   31     2       0.3558287349E-04      31   29    2         0.1210690779E-02      0.2372026389E-01
          0                29           1            34   30     2       0.1826437418E-04      40   33    1         0.1166669354E-02      0.2130651889E-01
          0                30           1            31   31     2       0.2887228771E-04      31   29    2         0.9817811548E-03      0.1913388648E-01
                                                   Max.-Head-Change                         Max.-Flux-Residual
  Residual-Control   Outer-Iter.   Inner-Iter.     Column Row Layer    Maximum-Head-Change  Column Row Layer    Maximum-Flux-Residual          L2-NORM 
          0                31           1            34   30     2       0.1470245890E-04      40   33    1         0.9603081137E-03      0.1718319559E-01
          0                32           1            31   31     2       0.2340818501E-04      31   29    2         0.7955020350E-03      0.1542907085E-01
          0                33           1            34   30     2       0.1182445781E-04      40   33    1         0.7870588248E-03      0.1385342450E-01
          0                34           1            31   31     2       0.1896038472E-04      31   29    2         0.6439477748E-03      0.1243766304E-01
          0                35           1            34   30     2       0.9501336891E-05      40   33    1         0.6422087630E-03      0.1116565696E-01

    ------------------------------------------------
       NWT REQUIRED           35 OUTER ITERATIONS 
       AND A TOTAL OF         36 INNER ITERATIONS.
    ------------------------------------------------

 OUTPUT CONTROL FOR STRESS PERIOD    1   TIME STEP   13
    SAVE HEAD FOR ALL LAYERS
 SOLVING FOR ZETA FOR LAYER     1 ZONE     2

     841 UPPER PART EQS.       840 LOWER PART EQS.    BAND WIDTH + 1 =   42
 STRESS PERIOD=  1 TIMESTEP= 13 LAYER=  1 ZONE=  2 ACTIVE CELLS= 1681 NUMBER OF EQUATIONS=    1681
 UBUDSV SAVING "      ZETASRF  1" ON UNIT 55 AT TIME STEP 13, STRESS PERIOD    1

 HEAD WILL BE SAVED ON UNIT   51 AT END OF TIME STEP   13, STRESS PERIOD    1
 
 SOLVING FOR HEAD 
                                                   Max.-Head-Change                         Max.-Flux-Residual
  Residual-Control   Outer-Iter.   Inner-Iter.     Column Row Layer    Maximum-Head-Change  Column Row Layer    Maximum-Flux-Residual          L2-NORM 
          0                 1           2            31   51     1       0.2969876000E-02      31   51    1         0.8305764991E+00      0.1035929102E+02
          0                 2           1            49   49     2      -0.8094900468E-04      48   49    1        -0.6560292102E-02      0.1124307012E+00
          0                 3           1            46   46     2      -0.5848910099E-04      46   46    2        -0.3812257388E-02      0.6574552662E-01
          0                 4           1            43   45     2      -0.4084038878E-04      48   45    1        -0.2759896682E-02      0.4745215161E-01
          0                 5           1            46   42     2      -0.3140611771E-04      46   42    2        -0.2031302108E-02      0.3788182116E-01
          0                 6           1            42   42     2      -0.2837744883E-04      43   41    2        -0.1544831049E-02      0.3207957171E-01
          0                 7           1            38   40     2      -0.2272499107E-04      46   34    2        -0.1374185926E-02      0.2805943414E-01
          0                 8           1            35   37     2      -0.2374934751E-04      30   36    2        -0.1224251724E-02      0.2502045705E-01
          0                 9           1            32   33     1      -0.1982733764E-04      30   36    2        -0.1254223588E-02      0.2247480892E-01
          0                10           1            32   32     2      -0.2213882866E-04      30   36    2        -0.1128839140E-02      0.2027106579E-01
                                                   Max.-Head-Change                         Max.-Flux-Residual
  Residual-Control   Outer-Iter.   Inner-Iter.     Column Row Layer    Maximum-Head-Change  Column Row Layer    Maximum-Flux-Residual          L2-NORM 
          0                11           1            32   32     2      -0.1718774343E-04      30   36    2        -0.1095487911E-02      0.1832180923E-01
          0                12           1            32   32     2      -0.1928823214E-04      30   36    2        -0.9655382702E-03      0.1654637758E-01
          0                13           1            32   32     2      -0.1438332006E-04      30   36    2        -0.9155402759E-03      0.1497985263E-01
          0                14           1            32   32     2      -0.1613799584E-04      30   36    2        -0.8032994815E-03      0.1352485766E-01
          0                15           1            32   32     2      -0.1189643606E-04      30   36    2        -0.7519430692E-03      0.1225241182E-01
          0                16           1            31   32     1      -0.1328327728E-04      30   36    2        -0.6614993285E-03      0.1106072949E-01
          0                17           1            32   32     2      -0.9807567263E-05      30   36    2        -0.6133972943E-03      0.1002352690E-01

    ------------------------------------------------
       NWT REQUIRED           17 OUTER ITERATIONS 
       AND A TOTAL OF         18 INNER ITERATIONS.
    ------------------------------------------------

 OUTPUT CONTROL FOR STRESS PERIOD    1   TIME STEP   14
    SAVE HEAD FOR ALL LAYERS
 SOLVING FOR ZETA FOR LAYER     1 ZONE     2

     921 UPPER PART EQS.       924 LOWER PART EQS.    BAND WIDTH + 1 =   44
 STRESS PERIOD=  1 TIMESTEP= 14 LAYER=  1 ZONE=  2 ACTIVE CELLS= 1845 NUMBER OF EQUATIONS=    1845
 UBUDSV SAVING "      ZETASRF  1" ON UNIT 55 AT TIME STEP 14, STRESS PERIOD    1

 HEAD WILL BE SAVED ON UNIT   51 AT END OF TIME STEP   14, STRESS PERIOD    1
 
 SOLVING FOR HEAD 
                                                   Max.-Head-Change                         Max.-Flux-Residual
  Residual-Control   Outer-Iter.   Inner-Iter.     Column Row Layer    Maximum-Head-Change  Column Row Layer    Maximum-Flux-Residual          L2-NORM 
          0                 1           2            49   49     1       0.3900117046E-02      48   52    1        -0.1032513616E+01      0.1515850904E+02
          0                 2           1            44   16     2       0.8657847224E-03      18   14    2         0.3903377183E-01      0.6502275424E+00
          0                 3           1            21   20     1       0.3091461407E-03      47   42    1         0.2328164115E-01      0.4611239689E+00
          0                 4           1            43   21     2       0.4103717197E-03      44   20    2         0.1589001559E-01      0.3695249932E+00
          0                 5           1            30   23     1       0.1995195779E-03      46   39    1         0.1390542693E-01      0.3164552586E+00
          0                 6           1            35   27     2       0.3414962077E-03      36   24    2         0.1072401949E-01      0.2765854315E+00
          0                 7           1            31   30     1       0.1845881561E-03      46   31    1         0.1104876970E-01      0.2459393997E+00
          0                 8           1            31   31     2       0.3160693979E-03      30   30    2         0.9790723409E-02      0.2187456186E+00
          0                 9           1            32   32     2       0.1571807377E-03      46   31    1         0.9198207473E-02      0.1958323956E+00
          0                10           1            31   31     2       0.2654418969E-03      30   30    2         0.8334637084E-02      0.1748127593E+00
                                                   Max.-Head-Change                         Max.-Flux-Residual
  Residual-Control   Outer-Iter.   Inner-Iter.     Column Row Layer    Maximum-Head-Change  Column Row Layer    Maximum-Flux-Residual          L2-NORM 
          0                11           1            32   32     2       0.1290518484E-03      46   31    1         0.7643163390E-02      0.1566191418E+00
          0                12           1            31   31     2       0.2149007187E-03      30   30    2         0.6837928395E-02      0.1400222755E+00
          0                13           1            32   32     2       0.1044386395E-03      46   31    1         0.6296560655E-02      0.1255080443E+00
          0                14           1            31   31     2       0.1725225080E-03      30   30    2         0.5542938409E-02      0.1123123535E+00
          0                15           1            33   31     2       0.8422320125E-04      46   31    1         0.5139769996E-02      0.1007125435E+00
          0                16           1            31   31     2       0.1385261343E-03      30   30    2         0.4475613629E-02      0.9017378161E-01
          0                17           1            33   31     2       0.6777971550E-04      46   31    1         0.4158847919E-02      0.8087339003E-01
          0                18           1            31   31     2       0.1113246249E-03      30   30    2         0.3608776919E-02      0.7243868899E-01
          0                19           1            33   31     2       0.5448907048E-04      46   31    1         0.3337299892E-02      0.6497102949E-01
          0                20           1            31   31     2       0.8955322864E-04      31   29    2         0.2912205051E-02      0.5821157789E-01
                                                   Max.-Head-Change                         Max.-Flux-Residual
  Residual-Control   Outer-Iter.   Inner-Iter.     Column Row Layer    Maximum-Head-Change  Column Row Layer    Maximum-Flux-Residual          L2-NORM 
          0                21           1            33   31     2       0.4377076207E-04      34   30    2         0.2663217688E-02      0.5221078091E-01
          0                22           1            31   31     2       0.7209989569E-04      31   29    2         0.2353303178E-02      0.4678864030E-01
          0                23           1            34   30     2       0.3516418393E-04      34   30    2         0.2162539331E-02      0.4196368869E-01
          0                24           1            31   31     2       0.5806624864E-04      31   29    2         0.1902004264E-02      0.3761175695E-01
          0                25           1            34   30     2       0.2832573420E-04      40   33    1         0.1786331344E-02      0.3373231116E-01
          0                26           1            31   31     2       0.4678184252E-04      31   29    2         0.1537318175E-02      0.3023744916E-01
          0                27           1            34   30     2       0.2280131528E-04      40   33    1         0.1473688798E-02      0.2711765857E-01
          0                28           1            31   31     2       0.3769680314E-04      31   29    2         0.1242367277E-02      0.2431009342E-01
          0                29           1            34   30     2       0.1833969625E-04      40   33    1         0.1210903527E-02      0.2180100783E-01
          0                30           1            31   31     2       0.3037575662E-04      31   29    2         0.1003655305E-02      0.1954501240E-01
                                                   Max.-Head-Change                         Max.-Flux-Residual
  Residual-Control   Outer-Iter.   Inner-Iter.     Column Row Layer    Maximum-Head-Change  Column Row Layer    Maximum-Flux-Residual          L2-NORM 
          0                31           1            34   30     2       0.1473818529E-04      40   33    1         0.9907134733E-03      0.1752710784E-01
          0                32           1            31   31     2       0.2447336290E-04      31   29    2         0.8103734596E-03      0.1571397901E-01
          0                33           1            34   30     2       0.1183298186E-04      40   33    1         0.8069402907E-03      0.1409115361E-01
          0                34           1            31   31     2       0.1971349204E-04      32   32    2         0.6564655547E-03      0.1263376564E-01
          0                35           1            34   30     2       0.9491537979E-05      40   29    1         0.6542653984E-03      0.1132873725E-01

    ------------------------------------------------
       NWT REQUIRED           35 OUTER ITERATIONS 
       AND A TOTAL OF         36 INNER ITERATIONS.
    ------------------------------------------------

 OUTPUT CONTROL FOR STRESS PERIOD    1   TIME STEP   15
    SAVE HEAD FOR ALL LAYERS
 SOLVING FOR ZETA FOR LAYER     1 ZONE     2

     841 UPPER PART EQS.       840 LOWER PART EQS.    BAND WIDTH + 1 =   42
 STRESS PERIOD=  1 TIMESTEP= 15 LAYER=  1 ZONE=  2 ACTIVE CELLS= 1681 NUMBER OF EQUATIONS=    1681
 UBUDSV SAVING "      ZETASRF  1" ON UNIT 55 AT TIME STEP 15, STRESS PERIOD    1

 HEAD WILL BE SAVED ON UNIT   51 AT END OF TIME STEP   15, STRESS PERIOD    1
 
 SOLVING FOR HEAD 
                                                   Max.-Head-Change                         Max.-Flux-Residual
  Residual-Control   Outer-Iter.   Inner-Iter.     Column Row Layer    Maximum-Head-Change  Column Row Layer    Maximum-Flux-Residual          L2-NORM 
          0                 1           2            31   51     1       0.2801344225E-02      51   31    1         0.7787438483E+00      0.9498102477E+01
          0                 2           1            48   47     1      -0.1839026461E-03      48   49    1        -0.9733782556E-02      0.1759003066E+00
          0                 3           1            46   44     2      -0.8552334319E-04      46   42    2        -0.6628183387E-02      0.1157426526E+00
          0                 4           1            42   42     2      -0.9533342414E-04      48   41    1        -0.4456786588E-02      0.8964670980E-01
          0                 5           1            46   38     2      -0.4928774905E-04      46   38    2        -0.3856859002E-02      0.7454095354E-01
          0                 6           1            42   38     2      -0.6908147364E-04      43   37    2        -0.2859253559E-02      0.6469666360E-01
          0                 7           1            32   33     2      -0.4224029838E-04      46   34    2        -0.2921269033E-02      0.5718428291E-01
          0                 8           1            34   33     2      -0.6316723740E-04      43   33    2        -0.2335804338E-02      0.5111416086E-01
          0                 9           1            31   30     2      -0.3852456270E-04      46   30    2        -0.2379607226E-02      0.4583851843E-01
          0                10           1            32   32     2      -0.5448760498E-04      34   30    2        -0.1969692479E-02      0.4120159265E-01
                                                   Max.-Head-Change                         Max.-Flux-Residual
  Residual-Control   Outer-Iter.   Inner-Iter.     Column Row Layer    Maximum-Head-Change  Column Row Layer    Maximum-Flux-Residual          L2-NORM 
          0                11           1            31   30     2      -0.3286820848E-04      46   30    2        -0.1942195213E-02      0.3707521039E-01
          0                12           1            31   31     2      -0.4457681284E-04      30   32    2        -0.1645268833E-02      0.3337452484E-01
          0                13           1            31   30     2      -0.2743682373E-04      46   30    2        -0.1568207628E-02      0.3007889886E-01
          0                14           1            31   31     2      -0.3577531089E-04      43   33    2        -0.1361927623E-02      0.2710184555E-01
          0                15           1            31   30     2      -0.2278101089E-04      39   33    2        -0.1290791495E-02      0.2445339175E-01
          0                16           1            30   31     1      -0.2854190178E-04      43   33    2        -0.1131367388E-02      0.2205317144E-01
          0                17           1            31   30     2      -0.1890434418E-04      40   32    2        -0.1085236896E-02      0.1991856543E-01
          0                18           1            30   31     1      -0.2274397532E-04      43   33    2        -0.9367375674E-03      0.1797905217E-01
          0                19           1            31   30     2      -0.1570486405E-04      40   32    2        -0.9090323813E-03      0.1625243066E-01
          0                20           1            30   31     1      -0.1813845179E-04      36   32    2        -0.7768332629E-03      0.1468134350E-01
                                                   Max.-Head-Change                         Max.-Flux-Residual
  Residual-Control   Outer-Iter.   Inner-Iter.     Column Row Layer    Maximum-Head-Change  Column Row Layer    Maximum-Flux-Residual          L2-NORM 
          0                21           1            32   31     2      -0.1306180593E-04      40   32    2        -0.7577406382E-03      0.1328051657E-01
          0                22           1            30   31     1      -0.1449655168E-04      36   32    2        -0.6450265483E-03      0.1200501669E-01
          0                23           1            32   31     2      -0.1089464071E-04      40   32    2        -0.6291273741E-03      0.1086486357E-01
          0                24           1            30   31     1      -0.1159795527E-04      36   32    2        -0.5352634389E-03      0.9827169633E-02
          0                25           1            32   31     2      -0.9091645243E-05      40   32    2        -0.5203928475E-03      0.8897500433E-02

    ------------------------------------------------
       NWT REQUIRED           25 OUTER ITERATIONS 
       AND A TOTAL OF         26 INNER ITERATIONS.
    ------------------------------------------------

 OUTPUT CONTROL FOR STRESS PERIOD    1   TIME STEP   16
    SAVE HEAD FOR ALL LAYERS
 SOLVING FOR ZETA FOR LAYER     1 ZONE     2

     921 UPPER PART EQS.       924 LOWER PART EQS.    BAND WIDTH + 1 =   44
 STRESS PERIOD=  1 TIMESTEP= 16 LAYER=  1 ZONE=  2 ACTIVE CELLS= 1845 NUMBER OF EQUATIONS=    1845
 UBUDSV SAVING "      ZETASRF  1" ON UNIT 55 AT TIME STEP 16, STRESS PERIOD    1

 HEAD WILL BE SAVED ON UNIT   51 AT END OF TIME STEP   16, STRESS PERIOD    1
 
 SOLVING FOR HEAD 
                                                   Max.-Head-Change                         Max.-Flux-Residual
  Residual-Control   Outer-Iter.   Inner-Iter.     Column Row Layer    Maximum-Head-Change  Column Row Layer    Maximum-Flux-Residual          L2-NORM 
          0                 1           4            14   13     1       0.5143893855E-02      11   51    1         0.1179881974E+01      0.1737135641E+02
          0                 2           1            37   24     1       0.3764115620E-03      37   24    1         0.1887161212E-01      0.3470423532E+00
          0                 3           1            31   29     2       0.3523189187E-03      31   25    2         0.1585825251E-01      0.3011412923E+00
          0                 4           1            31   30     1       0.3276370373E-03      31   30    1         0.1328378173E-01      0.2700898211E+00
          0                 5           1            32   32     2       0.2492525228E-03      33   31    2         0.1241892265E-01      0.2439102986E+00
          0                 6           1            30   31     1       0.2898387169E-03      30   30    2         0.1076124920E-01      0.2198801595E+00
          0                 7           1            32   32     2       0.1821100574E-03      33   31    2         0.9828783519E-02      0.1987921014E+00
          0                 8           1            31   31     2       0.2561901748E-03      30   30    2         0.8866111334E-02      0.1787760611E+00
          0                 9           1            32   32     2       0.1375855507E-03      42   22    2         0.8036586426E-02      0.1613985534E+00
          0                10           1            31   31     2       0.2227564880E-03      30   30    2         0.7200105933E-02      0.1445332671E+00
                                                   Max.-Head-Change                         Max.-Flux-Residual
  Residual-Control   Outer-Iter.   Inner-Iter.     Column Row Layer    Maximum-Head-Change  Column Row Layer    Maximum-Flux-Residual          L2-NORM 
          0                11           1            33   31     2       0.1060234739E-03      42   22    2         0.6705786188E-02      0.1301720391E+00
          0                12           1            31   31     2       0.1887742433E-03      30   30    2         0.5794937587E-02      0.1160744512E+00
          0                13           1            33   31     2       0.8253258449E-04      42   22    2         0.5530789204E-02      0.1043057300E+00
          0                14           1            31   31     2       0.1565765823E-03      30   30    2         0.4633638667E-02      0.9267610328E-01
          0                15           1            33   31     2       0.6458454079E-04      42   22    2         0.4501480852E-02      0.8311997189E-01
          0                16           1            31   31     2       0.1274841358E-03      31   29    2         0.3691680713E-02      0.7365818976E-01
          0                17           1            33   31     2       0.5072061680E-04      42   22    2         0.3618343428E-02      0.6597158635E-01
          0                18           1            31   31     2       0.1022814994E-03      31   29    2         0.2934499969E-02      0.5836813071E-01
          0                19           1            34   30     2       0.3996784446E-04      42   42    2         0.2950477455E-02      0.5223434880E-01
          0                20           1            31   31     2       0.8115708835E-04      31   29    2         0.2329011733E-02      0.4618365870E-01
                                                   Max.-Head-Change                         Max.-Flux-Residual
  Residual-Control   Outer-Iter.   Inner-Iter.     Column Row Layer    Maximum-Head-Change  Column Row Layer    Maximum-Flux-Residual          L2-NORM 
          0                21           1            34   30     2       0.3169712795E-04      42   42    2         0.2386648878E-02      0.4131807647E-01
          0                22           1            31   31     2       0.6387279283E-04      31   29    2         0.1847984856E-02      0.3653703117E-01
          0                23           1            34   30     2       0.2522211445E-04      42   42    2         0.1911791106E-02      0.3269363305E-01
          0                24           1            31   31     2       0.4999783634E-04      31   29    2         0.1467497493E-02      0.2893308618E-01
          0                25           1            34   30     2       0.2014070105E-04      42   42    2         0.1520220093E-02      0.2590407919E-01
          0                26           1            31   31     2       0.3901818022E-04      31   29    2         0.1167211872E-02      0.2295322732E-01
          0                27           1            34   30     2       0.1614260000E-04      42   42    2         0.1202567568E-02      0.2056732172E-01
          0                28           1            31   31     2       0.3040781497E-04      32   32    2         0.9313188419E-03      0.1825302443E-01
          0                29           1            32   31     1       0.1300538409E-04      42   42    2         0.9479415310E-03      0.1637237419E-01
          0                30           1            31   31     2       0.2369732234E-04      32   32    2         0.7459329501E-03      0.1455575166E-01
                                                   Max.-Head-Change                         Max.-Flux-Residual
  Residual-Control   Outer-Iter.   Inner-Iter.     Column Row Layer    Maximum-Head-Change  Column Row Layer    Maximum-Flux-Residual          L2-NORM 
          0                31           1            32   31     1       0.1054608576E-04      42   42    2         0.7455986721E-03      0.1307077535E-01
          0                32           1            31   31     2       0.1848540884E-04      32   32    2         0.5990673762E-03      0.1164209218E-01
          0                33           1            33   32     1       0.8585834792E-05      42   42    2         0.5857668565E-03      0.1046669313E-01

    ------------------------------------------------
       NWT REQUIRED           33 OUTER ITERATIONS 
       AND A TOTAL OF         36 INNER ITERATIONS.
    ------------------------------------------------

 OUTPUT CONTROL FOR STRESS PERIOD    1   TIME STEP   17
    SAVE HEAD FOR ALL LAYERS
 SOLVING FOR ZETA FOR LAYER     1 ZONE     2

     841 UPPER PART EQS.       840 LOWER PART EQS.    BAND WIDTH + 1 =   42
 STRESS PERIOD=  1 TIMESTEP= 17 LAYER=  1 ZONE=  2 ACTIVE CELLS= 1681 NUMBER OF EQUATIONS=    1681
 UBUDSV SAVING "      ZETASRF  1" ON UNIT 55 AT TIME STEP 17, STRESS PERIOD    1

 HEAD WILL BE SAVED ON UNIT   51 AT END OF TIME STEP   17, STRESS PERIOD    1
 
 SOLVING FOR HEAD 
                                                   Max.-Head-Change                         Max.-Flux-Residual
  Residual-Control   Outer-Iter.   Inner-Iter.     Column Row Layer    Maximum-Head-Change  Column Row Layer    Maximum-Flux-Residual          L2-NORM 
          0                 1           2            30   51     1       0.2565490011E-02      11   31    1         0.7017105897E+00      0.8621080554E+01
          0                 2           1            47   46     1      -0.3413255161E-03      48   45    1        -0.1379002066E-01      0.2605775784E+00
          0                 3           1            46   42     2      -0.1126696660E-03      47   41    2        -0.9976884529E-02      0.1684418918E+00
          0                 4           1            42   42     2      -0.1637263112E-03      43   41    2        -0.6023259322E-02      0.1328150297E+00
          0                 5           1            39   39     2      -0.7200562772E-04      46   34    2        -0.5789550561E-02      0.1124924552E+00
          0                 6           1            34   34     2      -0.1192218546E-03      43   33    2        -0.4231734037E-02      0.9854099120E-01
          0                 7           1            31   31     2      -0.6683365781E-04      46   30    2        -0.4514668217E-02      0.8754520965E-01
          0                 8           1            33   31     2      -0.1061958410E-03      43   33    2        -0.3566796197E-02      0.7821427552E-01
          0                 9           1            31   31     2      -0.5843782947E-04      46   30    2        -0.3676409969E-02      0.7013216479E-01
          0                10           1            30   31     1      -0.8781096717E-04      43   33    2        -0.2990573915E-02      0.6293389966E-01
                                                   Max.-Head-Change                         Max.-Flux-Residual
  Residual-Control   Outer-Iter.   Inner-Iter.     Column Row Layer    Maximum-Head-Change  Column Row Layer    Maximum-Flux-Residual          L2-NORM 
          0                11           1            31   31     2      -0.4883564092E-04      46   30    2        -0.2978733706E-02      0.5657171166E-01
          0                12           1            30   31     1      -0.7098055692E-04      43   33    2        -0.2490230676E-02      0.5084814545E-01
          0                13           1            31   31     2      -0.4025311618E-04      40   32    2        -0.2420129118E-02      0.4576402487E-01
          0                14           1            30   31     1      -0.5692793653E-04      43   33    2        -0.2060826506E-02      0.4117655221E-01
          0                15           1            32   32     2      -0.3311537628E-04      40   32    2        -0.2046471116E-02      0.3709519747E-01
          0                16           1            30   31     1      -0.4557190494E-04      43   33    2        -0.1696316355E-02      0.3340257964E-01
          0                17           1            32   32     2      -0.2726437850E-04      40   32    2        -0.1717723989E-02      0.3011598249E-01
          0                18           1            30   31     1      -0.3648697066E-04      43   33    2        -0.1389872095E-02      0.2713678726E-01
          0                19           1            32   32     2      -0.2246359216E-04      40   32    2        -0.1432937262E-02      0.2448428674E-01
          0                20           1            30   31     1      -0.2924767099E-04      36   32    2        -0.1146822388E-02      0.2207563479E-01
                                                   Max.-Head-Change                         Max.-Flux-Residual
  Residual-Control   Outer-Iter.   Inner-Iter.     Column Row Layer    Maximum-Head-Change  Column Row Layer    Maximum-Flux-Residual          L2-NORM 
          0                21           1            32   32     2      -0.1852336017E-04      40   32    2        -0.1189203750E-02      0.1993002795E-01
          0                22           1            30   31     1      -0.2347146175E-04      36   32    2        -0.9463790873E-03      0.1797945345E-01
          0                23           1            32   32     2      -0.1528217756E-04      40   32    2        -0.9824779710E-03      0.1624089849E-01
          0                24           1            31   32     1      -0.1886846360E-04      36   32    2        -0.7804057864E-03      0.1465893816E-01
          0                25           1            32   32     2      -0.1261003143E-04      40   32    2        -0.8085322240E-03      0.1324772574E-01
          0                26           1            30   30     2      -0.1522176298E-04      37   31    2        -0.6440723529E-03      0.1196277176E-01
          0                27           1            33   31     2      -0.1042898434E-04      40   32    2        -0.6631648299E-03      0.1081524399E-01
          0                28           1            30   30     2      -0.1231003848E-04      37   31    2        -0.5349404730E-03      0.9770256797E-02
          0                29           1            33   31     2      -0.8626304012E-05      40   32    2        -0.5422810439E-03      0.8836076933E-02

    ------------------------------------------------
       NWT REQUIRED           29 OUTER ITERATIONS 
       AND A TOTAL OF         30 INNER ITERATIONS.
    ------------------------------------------------

 OUTPUT CONTROL FOR STRESS PERIOD    1   TIME STEP   18
    SAVE HEAD FOR ALL LAYERS
 SOLVING FOR ZETA FOR LAYER     1 ZONE     2

     921 UPPER PART EQS.       924 LOWER PART EQS.    BAND WIDTH + 1 =   44
 STRESS PERIOD=  1 TIMESTEP= 18 LAYER=  1 ZONE=  2 ACTIVE CELLS= 1845 NUMBER OF EQUATIONS=    1845
 UBUDSV SAVING "      ZETASRF  1" ON UNIT 55 AT TIME STEP 18, STRESS PERIOD    1

 HEAD WILL BE SAVED ON UNIT   51 AT END OF TIME STEP   18, STRESS PERIOD    1
 
 SOLVING FOR HEAD 
                                                   Max.-Head-Change                         Max.-Flux-Residual
  Residual-Control   Outer-Iter.   Inner-Iter.     Column Row Layer    Maximum-Head-Change  Column Row Layer    Maximum-Flux-Residual          L2-NORM 
          0                 1           4            14   13     1       0.5556636437E-02      11   51    1         0.1362665925E+01      0.1985756099E+02
          0                 2           1            37   24     1       0.4226050440E-03      37   24    1         0.2114285864E-01      0.3872818614E+00
          0                 3           1            31   29     2       0.3931433177E-03      41   23    2         0.1852326289E-01      0.3379374674E+00
          0                 4           1            31   30     1       0.3695642016E-03      31   30    1         0.1484625736E-01      0.3030084808E+00
          0                 5           1            32   32     2       0.2772718172E-03      41   23    2         0.1436681517E-01      0.2735213227E+00
          0                 6           1            30   31     1       0.3259882071E-03      30   30    2         0.1204888628E-01      0.2464070896E+00
          0                 7           1            32   32     2       0.2026332955E-03      41   23    2         0.1177859863E-01      0.2229925376E+00
          0                 8           1            31   31     2       0.2865500917E-03      30   30    2         0.9913605217E-02      0.2001890569E+00
          0                 9           1            32   32     2       0.1535879257E-03      41   23    2         0.9687431857E-02      0.1810890544E+00
          0                10           1            31   31     2       0.2470083757E-03      30   30    2         0.8042833433E-02      0.1617887067E+00
                                                   Max.-Head-Change                         Max.-Flux-Residual
  Residual-Control   Outer-Iter.   Inner-Iter.     Column Row Layer    Maximum-Head-Change  Column Row Layer    Maximum-Flux-Residual          L2-NORM 
          0                11           1            33   31     2       0.1191352747E-03      41   23    2         0.7905578330E-02      0.1461385870E+00
          0                12           1            31   31     2       0.2070819185E-03      30   30    2         0.6473439995E-02      0.1300069594E+00
          0                13           1            33   31     2       0.9352642753E-04      42   22    2         0.6547909077E-02      0.1172623531E+00
          0                14           1            31   31     2       0.1696217277E-03      31   29    2         0.5184483799E-02      0.1040124415E+00
          0                15           1            33   31     2       0.7398178738E-04      42   22    2         0.5508931460E-02      0.9371998129E-01
          0                16           1            31   31     2       0.1365660366E-03      31   29    2         0.4148716406E-02      0.8300500562E-01
          0                17           1            33   31     2       0.5887306211E-04      42   22    2         0.4554626740E-02      0.7474843860E-01
          0                18           1            31   31     2       0.1085685938E-03      31   29    2         0.3316705965E-02      0.6618498382E-01
          0                19           1            34   30     2       0.4715038313E-04      42   22    2         0.3712234372E-02      0.5959435468E-01
          0                20           1            31   31     2       0.8557159788E-04      31   29    2         0.2652795041E-02      0.5280562657E-01
                                                   Max.-Head-Change                         Max.-Flux-Residual
  Residual-Control   Outer-Iter.   Inner-Iter.     Column Row Layer    Maximum-Head-Change  Column Row Layer    Maximum-Flux-Residual          L2-NORM 
          0                21           1            34   30     2       0.3803986851E-04      42   22    2         0.2992267001E-02      0.4755967760E-01
          0                22           1            31   31     2       0.6709657706E-04      31   29    2         0.2125058831E-02      0.4220322441E-01
          0                23           1            34   30     2       0.3084485909E-04      42   22    2         0.2392085950E-02      0.3803095034E-01
          0                24           1            31   31     2       0.5247188414E-04      31   29    2         0.1706138410E-02      0.3381266581E-01
          0                25           1            34   30     2       0.2513389651E-04      42   22    2         0.1900935159E-02      0.3049166560E-01
          0                26           1            31   31     2       0.4100585332E-04      32   32    2         0.1376303077E-02      0.2716896366E-01
          0                27           1            34   30     2       0.2057666830E-04      42   22    2         0.1504394102E-02      0.2452016483E-01
          0                28           1            31   31     2       0.3206712524E-04      32   32    2         0.1114000980E-02      0.2189825314E-01
          0                29           1            34   30     2       0.1691973678E-04      42   22    2         0.1187287317E-02      0.1977948322E-01
          0                30           1            31   31     2       0.2511793387E-04      32   32    2         0.9043603130E-03      0.1770466780E-01
                                                   Max.-Head-Change                         Max.-Flux-Residual
  Residual-Control   Outer-Iter.   Inner-Iter.     Column Row Layer    Maximum-Head-Change  Column Row Layer    Maximum-Flux-Residual          L2-NORM 
          0                31           1            32   31     1       0.1396990658E-04      42   22    2         0.9353763396E-03      0.1600408954E-01
          0                32           1            31   31     2       0.1971985177E-04      32   32    2         0.7361723324E-03      0.1435642760E-01
          0                33           1            32   31     1       0.1160916728E-04      42   22    2         0.7361534920E-03      0.1298646852E-01
          0                34           1            31   31     2       0.1552298229E-04      32   32    2         0.6006906926E-03      0.1167293806E-01
          0                35           1            33   32     1       0.9676609632E-05      42   22    2         0.5790549066E-03      0.1056522005E-01

    ------------------------------------------------
       NWT REQUIRED           35 OUTER ITERATIONS 
       AND A TOTAL OF         38 INNER ITERATIONS.
    ------------------------------------------------

 OUTPUT CONTROL FOR STRESS PERIOD    1   TIME STEP   19
    SAVE HEAD FOR ALL LAYERS
 SOLVING FOR ZETA FOR LAYER     1 ZONE     2

     841 UPPER PART EQS.       840 LOWER PART EQS.    BAND WIDTH + 1 =   42
 STRESS PERIOD=  1 TIMESTEP= 19 LAYER=  1 ZONE=  2 ACTIVE CELLS= 1681 NUMBER OF EQUATIONS=    1681
 UBUDSV SAVING "      ZETASRF  1" ON UNIT 55 AT TIME STEP 19, STRESS PERIOD    1

 HEAD WILL BE SAVED ON UNIT   51 AT END OF TIME STEP   19, STRESS PERIOD    1
 
 SOLVING FOR HEAD 
                                                   Max.-Head-Change                         Max.-Flux-Residual
  Residual-Control   Outer-Iter.   Inner-Iter.     Column Row Layer    Maximum-Head-Change  Column Row Layer    Maximum-Flux-Residual          L2-NORM 
          0                 1           2            30   51     1       0.2259394320E-02      51   31    1         0.5979905872E+00      0.7970822223E+01
          0                 2           1            47   46     1      -0.4926515358E-03      48   45    1        -0.1840775910E-01      0.3583761362E+00
          0                 3           1            46   42     2      -0.1491845174E-03      47   41    2        -0.1420859526E-01      0.2325994546E+00
          0                 4           1            42   42     2      -0.2195265100E-03      43   41    2        -0.8007016884E-02      0.1838693768E+00
          0                 5           1            39   37     2      -0.1051633788E-03      32   32    2        -0.8106661423E-02      0.1580749164E+00
          0                 6           1            33   32     2      -0.1594356574E-03      32   32    2        -0.8417575287E-02      0.1387474815E+00
          0                 7           1            32   31     2      -0.1022565139E-03      32   32    2        -0.8747064939E-02      0.1246563912E+00
          0                 8           1            33   32     2      -0.1328196982E-03      32   32    2        -0.7929139580E-02      0.1113666963E+00
          0                 9           1            32   31     2      -0.9345556032E-04      32   32    2        -0.7673376386E-02      0.1008537350E+00
          0                10           1            31   31     2      -0.1056625338E-03      32   32    2        -0.6818264455E-02      0.9063460483E-01
                                                   Max.-Head-Change                         Max.-Flux-Residual
  Residual-Control   Outer-Iter.   Inner-Iter.     Column Row Layer    Maximum-Head-Change  Column Row Layer    Maximum-Flux-Residual          L2-NORM 
          0                11           1            32   31     2      -0.8151730233E-04      32   32    2        -0.6413090661E-02      0.8219767094E-01
          0                12           1            31   31     2      -0.8374543686E-04      32   32    2        -0.5696915084E-02      0.7409443283E-01
          0                13           1            32   31     2      -0.6956242444E-04      32   32    2        -0.5279167858E-02      0.6720251462E-01
          0                14           1            31   31     2      -0.6672746508E-04      32   32    2        -0.4710639716E-02      0.6068807053E-01
          0                15           1            32   32     2      -0.5867454585E-04      32   32    2        -0.4323633622E-02      0.5502494624E-01
          0                16           1            31   31     2      -0.5349772919E-04      32   32    2        -0.3879028013E-02      0.4974826756E-01
          0                17           1            32   32     2      -0.4912225931E-04      32   32    2        -0.3534673747E-02      0.4508771638E-01
          0                18           1            31   31     2      -0.4314209045E-04      32   32    2        -0.3188662820E-02      0.4079484163E-01
          0                19           1            32   32     2      -0.4089565375E-04      32   32    2        -0.2888166499E-02      0.3695857950E-01
          0                20           1            31   31     2      -0.3494136994E-04      32   32    2        -0.2619093420E-02      0.3345727310E-01
                                                   Max.-Head-Change                         Max.-Flux-Residual
  Residual-Control   Outer-Iter.   Inner-Iter.     Column Row Layer    Maximum-Head-Change  Column Row Layer    Maximum-Flux-Residual          L2-NORM 
          0                21           1            32   32     2      -0.3391506056E-04      32   32    2        -0.2359535819E-02      0.3030058572E-01
          0                22           1            30   30     2      -0.2840234730E-04      32   32    2        -0.2150544426E-02      0.2744020649E-01
          0                23           1            32   32     2      -0.2804173170E-04      32   32    2        -0.1927651906E-02      0.2484421644E-01
          0                24           1            30   30     2      -0.2317336068E-04      32   32    2        -0.1765520527E-02      0.2250503465E-01
          0                25           1            32   32     2      -0.2313422418E-04      32   32    2        -0.1574903971E-02      0.2037106417E-01
          0                26           1            30   30     2      -0.1894362424E-04      32   32    2        -0.1449309476E-02      0.1845669648E-01
          0                27           1            33   31     2      -0.1906846753E-04      32   32    2        -0.1286736461E-02      0.1670370440E-01
          0                28           1            30   30     2      -0.1550876344E-04      32   32    2        -0.1189652624E-02      0.1513657688E-01
          0                29           1            33   31     2      -0.1570028348E-04      33   31    2        -0.1051779057E-02      0.1369696445E-01
          0                30           1            30   30     2      -0.1271171192E-04      32   32    2        -0.9765062077E-03      0.1241346548E-01
                                                   Max.-Head-Change                         Max.-Flux-Residual
  Residual-Control   Outer-Iter.   Inner-Iter.     Column Row Layer    Maximum-Head-Change  Column Row Layer    Maximum-Flux-Residual          L2-NORM 
          0                31           1            33   31     2      -0.1290948408E-04      33   31    2        -0.8601643339E-03      0.1123189460E-01
          0                32           1            30   30     2      -0.1043148890E-04      32   32    2        -0.8015049874E-03      0.1018044512E-01
          0                33           1            33   33     2      -0.1061077458E-04      33   31    2        -0.7033642080E-03      0.9210877550E-02
          0                34           1            30   30     2      -0.8564777897E-05      32   32    2        -0.6578226921E-03      0.8349560327E-02

    ------------------------------------------------
       NWT REQUIRED           34 OUTER ITERATIONS 
       AND A TOTAL OF         35 INNER ITERATIONS.
    ------------------------------------------------

 OUTPUT CONTROL FOR STRESS PERIOD    1   TIME STEP   20
    SAVE HEAD FOR ALL LAYERS
 SOLVING FOR ZETA FOR LAYER     1 ZONE     2

     921 UPPER PART EQS.       924 LOWER PART EQS.    BAND WIDTH + 1 =   44
 STRESS PERIOD=  1 TIMESTEP= 20 LAYER=  1 ZONE=  2 ACTIVE CELLS= 1845 NUMBER OF EQUATIONS=    1845
 UBUDSV SAVING "      ZETASRF  1" ON UNIT 55 AT TIME STEP 20, STRESS PERIOD    1

 HEAD WILL BE SAVED ON UNIT   51 AT END OF TIME STEP   20, STRESS PERIOD    1
 
 SOLVING FOR HEAD 
                                                   Max.-Head-Change                         Max.-Flux-Residual
  Residual-Control   Outer-Iter.   Inner-Iter.     Column Row Layer    Maximum-Head-Change  Column Row Layer    Maximum-Flux-Residual          L2-NORM 
          0                 1           4            14   13     1       0.6015873663E-02      11   11    1         0.1556762298E+01      0.2260047299E+02
          0                 2           1            37   24     1       0.4746762591E-03      37   24    1         0.2369110272E-01      0.4325842836E+00
          0                 3           1            31   29     2       0.4460719089E-03      31   25    2         0.1984830387E-01      0.3748706265E+00
          0                 4           1            31   30     1       0.4038115972E-03      31   30    1         0.1662606128E-01      0.3366801207E+00
          0                 5           1            32   32     2       0.3211966884E-03      33   31    2         0.1558660807E-01      0.3033407593E+00
          0                 6           1            30   31     1       0.3443921860E-03      30   30    2         0.1345220352E-01      0.2739777830E+00
          0                 7           1            32   32     2       0.2400996007E-03      33   31    2         0.1235049752E-01      0.2474144112E+00
          0                 8           1            31   31     2       0.2926574819E-03      30   30    2         0.1109509689E-01      0.2233037977E+00
          0                 9           1            33   31     2       0.1864946001E-03      42   30    2         0.1021211528E-01      0.2016837953E+00
          0                10           1            31   31     2       0.2453818723E-03      30   30    2         0.9059082884E-02      0.1817388204E+00
                                                   Max.-Head-Change                         Max.-Flux-Residual
  Residual-Control   Outer-Iter.   Inner-Iter.     Column Row Layer    Maximum-Head-Change  Column Row Layer    Maximum-Flux-Residual          L2-NORM 
          0                11           1            33   31     2       0.1484021403E-03      42   30    2         0.8468932870E-02      0.1640980649E+00
          0                12           1            31   31     2       0.2021048270E-03      30   30    2         0.7369327322E-02      0.1476935441E+00
          0                13           1            33   31     2       0.1196953540E-03      42   38    2         0.7041931231E-02      0.1333331487E+00
          0                14           1            31   31     2       0.1641744961E-03      30   30    2         0.5986509171E-02      0.1199450794E+00
          0                15           1            33   31     2       0.9739511500E-04      42   38    2         0.5888295862E-02      0.1082942690E+00
          0                16           1            31   31     2       0.1321986042E-03      38   30    2         0.4873759918E-02      0.9743117663E-01
          0                17           1            33   31     2       0.7973729302E-04      42   38    2         0.4867396210E-02      0.8799592426E-01
          0                18           1            31   31     2       0.1059361417E-03      38   30    2         0.3980949445E-02      0.7920953551E-01
          0                19           1            33   31     2       0.6557574327E-04      42   38    2         0.3988814691E-02      0.7157072177E-01
          0                20           1            31   31     2       0.8470004489E-04      38   30    2         0.3248886392E-02      0.6447158943E-01
                                                   Max.-Head-Change                         Max.-Flux-Residual
  Residual-Control   Outer-Iter.   Inner-Iter.     Column Row Layer    Maximum-Head-Change  Column Row Layer    Maximum-Flux-Residual          L2-NORM 
          0                21           1            33   31     2       0.5411219943E-04      42   38    2         0.3248117039E-02      0.5828254846E-01
          0                22           1            31   31     2       0.6768549534E-04      38   30    2         0.2649601725E-02      0.5254462554E-01
          0                23           1            34   30     2       0.4482252999E-04      42   38    2         0.2632830883E-02      0.4752351917E-01
          0                24           1            31   31     2       0.5412654682E-04      32   32    2         0.2161842445E-02      0.4287994101E-01
          0                25           1            34   30     2       0.3719319843E-04      42   38    2         0.2127083148E-02      0.3879938715E-01
          0                26           1            31   31     2       0.4334339091E-04      32   32    2         0.1773821562E-02      0.3503494001E-01
          0                27           1            34   30     2       0.3088834044E-04      42   38    2         0.1714436031E-02      0.3171280163E-01
          0                28           1            31   31     2       0.3476880267E-04      32   32    2         0.1457043973E-02      0.2865529898E-01
          0                29           1            30   31     1       0.2566293526E-04      42   38    2         0.1379507549E-02      0.2594599886E-01
          0                30           1            31   31     2       0.2794431966E-04      32   32    2         0.1197862001E-02      0.2345803760E-01
                                                   Max.-Head-Change                         Max.-Flux-Residual
  Residual-Control   Outer-Iter.   Inner-Iter.     Column Row Layer    Maximum-Head-Change  Column Row Layer    Maximum-Flux-Residual          L2-NORM 
          0                31           1            32   31     1       0.2135023251E-04      35   29    2         0.1113861584E-02      0.2124513680E-01
          0                32           1            31   31     2       0.2250230172E-04      32   32    2         0.9853765366E-03      0.1921722279E-01
          0                33           1            32   31     1       0.1777246458E-04      35   29    2         0.9129723903E-03      0.1740741926E-01
          0                34           1            31   31     2       0.1815418768E-04      32   32    2         0.8108696810E-03      0.1575200734E-01
          0                35           1            32   31     1       0.1478316675E-04      35   29    2         0.7477426249E-03      0.1427027174E-01
          0                36           1            31   31     2       0.1467193586E-04      32   32    2         0.6673472031E-03      0.1291724370E-01
          0                37           1            32   31     1       0.1228367808E-04      36   28    2         0.6129946772E-03      0.1170311585E-01
          0                38           1            31   31     2       0.1187765953E-04      32   32    2         0.5491772308E-03      0.1059608918E-01
          0                39           1            33   32     1       0.1019715546E-04      36   28    2         0.5050301123E-03      0.9600614366E-02
          0                40           1            32   32     2       0.9643663134E-05      32   32    2         0.4518062442E-03      0.8694102616E-02

    ------------------------------------------------
       NWT REQUIRED           40 OUTER ITERATIONS 
       AND A TOTAL OF         43 INNER ITERATIONS.
    ------------------------------------------------

 OUTPUT CONTROL FOR STRESS PERIOD    1   TIME STEP   21
    SAVE HEAD FOR ALL LAYERS
 SOLVING FOR ZETA FOR LAYER     1 ZONE     2

     841 UPPER PART EQS.       840 LOWER PART EQS.    BAND WIDTH + 1 =   42
 STRESS PERIOD=  1 TIMESTEP= 21 LAYER=  1 ZONE=  2 ACTIVE CELLS= 1681 NUMBER OF EQUATIONS=    1681
 UBUDSV SAVING "      ZETASRF  1" ON UNIT 55 AT TIME STEP 21, STRESS PERIOD    1

 HEAD WILL BE SAVED ON UNIT   51 AT END OF TIME STEP   21, STRESS PERIOD    1
 
 SOLVING FOR HEAD 
                                                   Max.-Head-Change                         Max.-Flux-Residual
  Residual-Control   Outer-Iter.   Inner-Iter.     Column Row Layer    Maximum-Head-Change  Column Row Layer    Maximum-Flux-Residual          L2-NORM 
          0                 1           2            15   14     2      -0.2247022201E-02      49   52    1         0.4769064124E+00      0.7929831870E+01
          0                 2           1            44   46     2      -0.6184416027E-03      49   16    1        -0.2384889671E-01      0.4678651618E+00
          0                 3           1            40   20     2      -0.2011494949E-03      47   41    2        -0.1885383465E-01      0.3167922042E+00
          0                 4           1            43   41     2      -0.2915110863E-03      43   41    2        -0.1024488375E-01      0.2478621134E+00
          0                 5           1            39   37     2      -0.1392766861E-03      31   29    2        -0.1308204232E-01      0.2145381882E+00
          0                 6           1            31   30     2      -0.2231012521E-03      31   29    2        -0.1291018682E-01      0.1870809559E+00
          0                 7           1            31   32     2      -0.1330620877E-03      31   29    2        -0.1470954142E-01      0.1696255842E+00
          0                 8           1            31   30     2      -0.1882242053E-03      30   30    2        -0.1240360652E-01      0.1500199268E+00
          0                 9           1            31   32     2      -0.1210318475E-03      31   29    2        -0.1279192311E-01      0.1369359435E+00
          0                10           1            31   30     2      -0.1478861918E-03      30   30    2        -0.1077107854E-01      0.1219592129E+00
                                                   Max.-Head-Change                         Max.-Flux-Residual
  Residual-Control   Outer-Iter.   Inner-Iter.     Column Row Layer    Maximum-Head-Change  Column Row Layer    Maximum-Flux-Residual          L2-NORM 
          0                11           1            31   32     2      -0.1053819887E-03      31   29    2        -0.1051742087E-01      0.1112653478E+00
          0                12           1            31   30     2      -0.1156558297E-03      30   30    2        -0.9063315833E-02      0.9964003464E-01
          0                13           1            31   32     2      -0.8987960924E-04      31   29    2        -0.8542537566E-02      0.9075619508E-01
          0                14           1            31   31     2      -0.9151808882E-04      30   30    2        -0.7536154442E-02      0.8159418804E-01
          0                15           1            31   32     2      -0.7575640568E-04      30   30    2        -0.6937669561E-02      0.7419608589E-01
          0                16           1            31   31     2      -0.7313610723E-04      30   30    2        -0.6232687213E-02      0.6688819621E-01
          0                17           1            32   32     2      -0.6342564109E-04      30   30    2        -0.5639429291E-02      0.6073719968E-01
          0                18           1            31   31     2      -0.5883677265E-04      30   30    2        -0.5140091445E-02      0.5486039903E-01
          0                19           1            32   32     2      -0.5284998758E-04      30   30    2        -0.4590090704E-02      0.4975839055E-01
          0                20           1            30   30     2      -0.4757285564E-04      30   30    2        -0.4231871327E-02      0.4500616288E-01
                                                   Max.-Head-Change                         Max.-Flux-Residual
  Residual-Control   Outer-Iter.   Inner-Iter.     Column Row Layer    Maximum-Head-Change  Column Row Layer    Maximum-Flux-Residual          L2-NORM 
          0                21           1            32   32     2      -0.4390311253E-04      30   30    2        -0.3740259648E-02      0.4078186645E-01
          0                22           1            30   30     2      -0.3857532303E-04      30   30    2        -0.3481066559E-02      0.3692555982E-01
          0                23           1            33   31     2      -0.3638523343E-04      30   30    2        -0.3049955974E-02      0.3343393435E-01
          0                24           1            30   30     2      -0.3135984662E-04      31   29    2        -0.2861675460E-02      0.3029637067E-01
          0                25           1            33   31     2      -0.3012151508E-04      30   30    2        -0.2488962014E-02      0.2741419737E-01
          0                26           1            30   30     2      -0.2553364246E-04      31   29    2        -0.2353630609E-02      0.2485725867E-01
          0                27           1            33   31     2      -0.2491173646E-04      30   30    2        -0.2032246940E-02      0.2248008594E-01
          0                28           1            30   30     2      -0.2080595969E-04      31   29    2        -0.1935201726E-02      0.2039411514E-01
          0                29           1            33   31     2      -0.2059044865E-04      30   30    2        -0.1659893350E-02      0.1843446971E-01
          0                30           1            30   30     2      -0.1696436327E-04      31   29    2        -0.1590782545E-02      0.1673116155E-01
                                                   Max.-Head-Change                         Max.-Flux-Residual
  Residual-Control   Outer-Iter.   Inner-Iter.     Column Row Layer    Maximum-Head-Change  Column Row Layer    Maximum-Flux-Residual          L2-NORM 
          0                31           1            33   31     2      -0.1700156201E-04      30   30    2        -0.1356172628E-02      0.1511689935E-01
          0                32           1            31   31     2      -0.1383638551E-04      31   29    2        -0.1307103987E-02      0.1372560166E-01
          0                33           1            33   33     2      -0.1404428240E-04      30   30    2        -0.1108293767E-02      0.1239605589E-01
          0                34           1            31   31     2      -0.1128976292E-04      31   29    2        -0.1073828469E-02      0.1125915759E-01
          0                35           1            33   33     2      -0.1160107079E-04      30   30    2        -0.9058922160E-03      0.1016436381E-01
          0                36           1            31   31     2      -0.9216100763E-05      31   29    2        -0.8819233966E-03      0.9234844502E-02

    ------------------------------------------------
       NWT REQUIRED           36 OUTER ITERATIONS 
       AND A TOTAL OF         37 INNER ITERATIONS.
    ------------------------------------------------

 OUTPUT CONTROL FOR STRESS PERIOD    1   TIME STEP   22
    SAVE HEAD FOR ALL LAYERS
 SOLVING FOR ZETA FOR LAYER     1 ZONE     2

     921 UPPER PART EQS.       924 LOWER PART EQS.    BAND WIDTH + 1 =   44
 STRESS PERIOD=  1 TIMESTEP= 22 LAYER=  1 ZONE=  2 ACTIVE CELLS= 1845 NUMBER OF EQUATIONS=    1845
 UBUDSV SAVING "      ZETASRF  1" ON UNIT 55 AT TIME STEP 22, STRESS PERIOD    1

 HEAD WILL BE SAVED ON UNIT   51 AT END OF TIME STEP   22, STRESS PERIOD    1
 
 SOLVING FOR HEAD 
                                                   Max.-Head-Change                         Max.-Flux-Residual
  Residual-Control   Outer-Iter.   Inner-Iter.     Column Row Layer    Maximum-Head-Change  Column Row Layer    Maximum-Flux-Residual          L2-NORM 
          0                 1           6            48   49     1       0.6731545070E-02      11   11    1         0.1761722328E+01      0.2558632178E+02
          0                 2           1            30   31     1       0.3711555136E-03      30   31    1         0.1913836849E-01      0.3222126366E+00
          0                 3           1            32   32     2       0.4340864835E-03      33   31    2         0.1655619565E-01      0.2846506918E+00
          0                 4           1            30   31     1       0.2634486159E-03      37   31    2         0.1334922396E-01      0.2548494117E+00
          0                 5           1            32   32     2       0.3209563890E-03      33   31    2         0.1227080908E-01      0.2292368600E+00
          0                 6           1            31   30     1       0.2044899569E-03      38   30    2         0.1087687096E-01      0.2064738269E+00
          0                 7           1            33   31     2       0.2448580059E-03      34   30    2         0.9642988738E-02      0.1861213520E+00
          0                 8           1            31   30     1       0.1654948651E-03      38   30    2         0.9051756936E-02      0.1680207346E+00
          0                 9           1            33   31     2       0.1906000658E-03      41   31    2         0.7828234778E-02      0.1516020528E+00
          0                10           1            31   31     2       0.1368749661E-03      38   30    2         0.7525199319E-02      0.1370387010E+00
                                                   Max.-Head-Change                         Max.-Flux-Residual
  Residual-Control   Outer-Iter.   Inner-Iter.     Column Row Layer    Maximum-Head-Change  Column Row Layer    Maximum-Flux-Residual          L2-NORM 
          0                11           1            33   31     2       0.1502518977E-03      42   30    2         0.6429985624E-02      0.1237398118E+00
          0                12           1            31   31     2       0.1141353366E-03      38   30    2         0.6242248098E-02      0.1119374852E+00
          0                13           1            33   31     2       0.1192962284E-03      42   30    2         0.5352542003E-02      0.1011390470E+00
          0                14           1            31   31     2       0.9542717385E-04      38   30    2         0.5164084226E-02      0.9153575682E-01
          0                15           1            34   30     2       0.9550223764E-04      42   30    2         0.4442617769E-02      0.8274678467E-01
          0                16           1            31   31     2       0.7982503909E-04      38   30    2         0.4259641290E-02      0.7491167044E-01
          0                17           1            34   30     2       0.7674934188E-04      42   30    2         0.3675141112E-02      0.6774377334E-01
          0                18           1            31   31     2       0.6673417273E-04      38   30    2         0.3503166692E-02      0.6133915227E-01
          0                19           1            34   30     2       0.6182550226E-04      35   29    2         0.3054637663E-02      0.5548405974E-01
          0                20           1            31   31     2       0.5572385267E-04      38   30    2         0.2872641793E-02      0.5024186269E-01
                                                   Max.-Head-Change                         Max.-Flux-Residual
  Residual-Control   Outer-Iter.   Inner-Iter.     Column Row Layer    Maximum-Head-Change  Column Row Layer    Maximum-Flux-Residual          L2-NORM 
          0                21           1            34   30     2       0.4989228307E-04      35   29    2         0.2545860128E-02      0.4545350944E-01
          0                22           1            31   31     2       0.4645869712E-04      38   30    2         0.2348987356E-02      0.4115898733E-01
          0                23           1            34   30     2       0.4031657712E-04      35   29    2         0.2118331425E-02      0.3723979668E-01
          0                24           1            31   31     2       0.3866650597E-04      38   30    2         0.1915637140E-02      0.3371972311E-01
          0                25           1            34   30     2       0.3261198999E-04      35   29    2         0.1759031987E-02      0.3051020682E-01
          0                26           1            31   31     2       0.3212112664E-04      39   29    2         0.1570320779E-02      0.2762410165E-01
          0                27           1            35   31     2       0.2649057465E-04      35   29    2         0.1457294399E-02      0.2499494215E-01
          0                28           1            31   31     2       0.2663213318E-04      39   29    2         0.1291209019E-02      0.2262841245E-01
          0                29           1            35   33     2       0.2154337832E-04      35   29    2         0.1204253719E-02      0.2047437896E-01
          0                30           1            31   31     2       0.2203794226E-04      39   29    2         0.1059107635E-02      0.1853398515E-01
                                                   Max.-Head-Change                         Max.-Flux-Residual
  Residual-Control   Outer-Iter.   Inner-Iter.     Column Row Layer    Maximum-Head-Change  Column Row Layer    Maximum-Flux-Residual          L2-NORM 
          0                31           1            35   33     2       0.1754364517E-04      35   29    2         0.9924640688E-03      0.1676920844E-01
          0                32           1            32   32     2       0.1823831646E-04      39   29    2         0.8666652700E-03      0.1517845262E-01
          0                33           1            35   33     2       0.1429080238E-04      35   29    2         0.8156219377E-03      0.1373271639E-01
          0                34           1            32   32     2       0.1507978863E-04      39   29    2         0.7075597548E-03      0.1242887116E-01
          0                35           1            35   33     2       0.1164329806E-04      35   29    2         0.6683613017E-03      0.1124467291E-01
          0                36           1            32   32     2       0.1244680469E-04      39   29    2         0.5763798885E-03      0.1017624968E-01
          0                37           1            35   33     2       0.9487343585E-05      36   28    2         0.5466073591E-03      0.9206451648E-02

    ------------------------------------------------
       NWT REQUIRED           37 OUTER ITERATIONS 
       AND A TOTAL OF         42 INNER ITERATIONS.
    ------------------------------------------------

 OUTPUT CONTROL FOR STRESS PERIOD    1   TIME STEP   23
    SAVE HEAD FOR ALL LAYERS
 SOLVING FOR ZETA FOR LAYER     1 ZONE     2

     841 UPPER PART EQS.       840 LOWER PART EQS.    BAND WIDTH + 1 =   42
 STRESS PERIOD=  1 TIMESTEP= 23 LAYER=  1 ZONE=  2 ACTIVE CELLS= 1681 NUMBER OF EQUATIONS=    1681
 UBUDSV SAVING "      ZETASRF  1" ON UNIT 55 AT TIME STEP 23, STRESS PERIOD    1

 HEAD WILL BE SAVED ON UNIT   51 AT END OF TIME STEP   23, STRESS PERIOD    1
 
 SOLVING FOR HEAD 
                                                   Max.-Head-Change                         Max.-Flux-Residual
  Residual-Control   Outer-Iter.   Inner-Iter.     Column Row Layer    Maximum-Head-Change  Column Row Layer    Maximum-Flux-Residual          L2-NORM 
          0                 1           2            48   15     2      -0.2443131482E-02      48   52    1         0.6447710043E+00      0.8850827482E+01
          0                 2           1            44   46     2      -0.7177466719E-03      49   16    1        -0.3103155518E-01      0.5856534334E+00
          0                 3           1            40   20     2      -0.2542125357E-03      47   41    2        -0.2364575302E-01      0.4170423329E+00
          0                 4           1            43   41     2      -0.4097325869E-03      49   40    1        -0.1355763930E-01      0.3211809599E+00
          0                 5           1            39   37     2      -0.1604570600E-03      29   31    2        -0.1395501887E-01      0.2762168270E+00
          0                 6           1            31   28     2      -0.3616168531E-03      29   31    2        -0.1419741450E-01      0.2361782645E+00
          0                 7           1            34   31     2      -0.1455498452E-03      29   31    2        -0.1634674562E-01      0.2121456091E+00
          0                 8           1            30   29     2      -0.3195783999E-03      29   31    2        -0.1319066032E-01      0.1828349822E+00
          0                 9           1            34   31     2      -0.1229053012E-03      29   31    2        -0.1412529015E-01      0.1654769885E+00
          0                10           1            30   29     2      -0.2427170358E-03      29   31    2        -0.1083156762E-01      0.1433314109E+00
                                                   Max.-Head-Change                         Max.-Flux-Residual
  Residual-Control   Outer-Iter.   Inner-Iter.     Column Row Layer    Maximum-Head-Change  Column Row Layer    Maximum-Flux-Residual          L2-NORM 
          0                11           1            34   31     2      -0.1008716215E-03      29   31    2        -0.1123420557E-01      0.1300358505E+00
          0                12           1            30   29     2      -0.1823391503E-03      29   31    2        -0.8699581770E-02      0.1135829641E+00
          0                13           1            34   31     2      -0.8264194243E-04      29   31    2        -0.8858103655E-02      0.1031633493E+00
          0                14           1            31   31     2      -0.1389226201E-03      29   31    2        -0.6987007877E-02      0.9075193056E-01
          0                15           1            34   31     2      -0.6785711941E-04      29   31    2        -0.7019153352E-02      0.8247528975E-01
          0                16           1            31   31     2      -0.1072455143E-03      29   31    2        -0.5629891259E-02      0.7294291162E-01
          0                17           1            34   31     2      -0.5585077629E-04      29   31    2        -0.5595647279E-02      0.6630960918E-01
          0                18           1            31   31     2      -0.8366994753E-04      29   31    2        -0.4551438255E-02      0.5888575281E-01
          0                19           1            34   31     2      -0.4605721856E-04      29   31    2        -0.4483962457E-02      0.5353578527E-01
          0                20           1            31   31     2      -0.6579643506E-04      29   31    2        -0.3689767130E-02      0.4769499477E-01
                                                   Max.-Head-Change                         Max.-Flux-Residual
  Residual-Control   Outer-Iter.   Inner-Iter.     Column Row Layer    Maximum-Head-Change  Column Row Layer    Maximum-Flux-Residual          L2-NORM 
          0                21           1            34   31     2      -0.3803905055E-04      29   31    2        -0.3607994649E-02      0.4336130685E-01
          0                22           1            31   31     2      -0.5205727329E-04      29   31    2        -0.2997976060E-02      0.3873110708E-01
          0                23           1            34   31     2      -0.3145526911E-04      29   31    2        -0.2912799989E-02      0.3520923277E-01
          0                24           1            31   31     2      -0.4137984919E-04      29   31    2        -0.2440356971E-02      0.3151741636E-01
          0                25           1            34   31     2      -0.2603171194E-04      29   31    2        -0.2357860308E-02      0.2864827502E-01
          0                26           1            31   31     2      -0.3302550586E-04      29   31    2        -0.1989405066E-02      0.2569121840E-01
          0                27           1            34   31     2      -0.2155722216E-04      29   31    2        -0.1912989846E-02      0.2334900409E-01
          0                28           1            31   31     2      -0.2644029002E-04      29   31    2        -0.1623751022E-02      0.2097149365E-01
          0                29           1            34   31     2      -0.1785842873E-04      29   31    2        -0.1554925089E-02      0.1905644631E-01
          0                30           1            31   31     2      -0.2122666777E-04      29   31    2        -0.1326616449E-02      0.1713899330E-01
                                                   Max.-Head-Change                         Max.-Flux-Residual
  Residual-Control   Outer-Iter.   Inner-Iter.     Column Row Layer    Maximum-Head-Change  Column Row Layer    Maximum-Flux-Residual          L2-NORM 
          0                31           1            34   32     2      -0.1481243015E-04      29   31    2        -0.1265885834E-02      0.1557109075E-01
          0                32           1            31   31     2      -0.1708062279E-04      29   31    2        -0.1084735903E-02      0.1402057914E-01
          0                33           1            34   32     2      -0.1229505950E-04      29   31    2        -0.1031940467E-02      0.1273555102E-01
          0                34           1            31   31     2      -0.1377291513E-04      29   31    2        -0.8875180082E-03      0.1147894154E-01
          0                35           1            34   32     2      -0.1020267390E-04      29   31    2        -0.8421884087E-03      0.1042471925E-01
          0                36           1            31   31     2      -0.1112642382E-04      29   31    2        -0.7265430888E-03      0.9404351516E-02
          0                37           1            34   32     2      -0.8461575076E-05      29   31    2        -0.6879874600E-03      0.8538954310E-02

    ------------------------------------------------
       NWT REQUIRED           37 OUTER ITERATIONS 
       AND A TOTAL OF         38 INNER ITERATIONS.
    ------------------------------------------------

 OUTPUT CONTROL FOR STRESS PERIOD    1   TIME STEP   24
    SAVE HEAD FOR ALL LAYERS
 SOLVING FOR ZETA FOR LAYER     1 ZONE     2

     921 UPPER PART EQS.       924 LOWER PART EQS.    BAND WIDTH + 1 =   44
 STRESS PERIOD=  1 TIMESTEP= 24 LAYER=  1 ZONE=  2 ACTIVE CELLS= 1845 NUMBER OF EQUATIONS=    1845
 UBUDSV SAVING "      ZETASRF  1" ON UNIT 55 AT TIME STEP 24, STRESS PERIOD    1

 HEAD WILL BE SAVED ON UNIT   51 AT END OF TIME STEP   24, STRESS PERIOD    1
 
 SOLVING FOR HEAD 
                                                   Max.-Head-Change                         Max.-Flux-Residual
  Residual-Control   Outer-Iter.   Inner-Iter.     Column Row Layer    Maximum-Head-Change  Column Row Layer    Maximum-Flux-Residual          L2-NORM 
          0                 1           6            18   13     1       0.6928087956E-02      46   10    1        -0.1797242822E+01      0.2770004966E+02
          0                 2           1            30   31     1       0.4045272157E-03      30   31    1         0.2094268949E-01      0.3491045427E+00
          0                 3           1            32   32     2       0.4713810082E-03      33   31    2         0.1803597264E-01      0.3082554353E+00
          0                 4           1            30   31     1       0.2857584076E-03      37   31    2         0.1454310486E-01      0.2758861553E+00
          0                 5           1            33   31     2       0.3499859494E-03      33   31    2         0.1333024228E-01      0.2480934444E+00
          0                 6           1            31   30     1       0.2198558823E-03      38   30    2         0.1188982627E-01      0.2234516938E+00
          0                 7           1            33   31     2       0.2689565335E-03      34   30    2         0.1047017065E-01      0.2013697577E+00
          0                 8           1            31   30     1       0.1763899435E-03      38   30    2         0.9884415462E-02      0.1817635665E+00
          0                 9           1            33   31     2       0.2108603564E-03      34   30    2         0.8476478358E-02      0.1639254327E+00
          0                10           1            31   31     2       0.1447187433E-03      38   30    2         0.8208982693E-02      0.1481330705E+00
                                                   Max.-Head-Change                         Max.-Flux-Residual
  Residual-Control   Outer-Iter.   Inner-Iter.     Column Row Layer    Maximum-Head-Change  Column Row Layer    Maximum-Flux-Residual          L2-NORM 
          0                11           1            33   31     2       0.1672000159E-03      42   30    2         0.6945728116E-02      0.1336788073E+00
          0                12           1            31   31     2       0.1197836355E-03      38   30    2         0.6801002853E-02      0.1208834608E+00
          0                13           1            34   30     2       0.1333694700E-03      42   30    2         0.5750474780E-02      0.1091528514E+00
          0                14           1            31   31     2       0.9950123964E-04      38   30    2         0.5617617640E-02      0.9875386086E-01
          0                15           1            34   30     2       0.1071441121E-03      42   30    2         0.4747638208E-02      0.8921755298E-01
          0                16           1            31   31     2       0.8277793323E-04      38   30    2         0.4625278692E-02      0.8074789282E-01
          0                17           1            34   30     2       0.8626142617E-04      35   29    2         0.3947832445E-02      0.7298276330E-01
          0                18           1            31   31     2       0.6889500126E-04      38   30    2         0.3796116586E-02      0.6607286447E-01
          0                19           1            34   30     2       0.6955655105E-04      35   29    2         0.3286756260E-02      0.5974078578E-01
          0                20           1            31   31     2       0.5732963558E-04      38   30    2         0.3106074179E-02      0.5409577796E-01
                                                   Max.-Head-Change                         Max.-Flux-Residual
  Residual-Control   Outer-Iter.   Inner-Iter.     Column Row Layer    Maximum-Head-Change  Column Row Layer    Maximum-Flux-Residual          L2-NORM 
          0                21           1            34   30     2       0.5615238655E-04      35   29    2         0.2733538523E-02      0.4892594778E-01
          0                22           1            31   31     2       0.4767822191E-04      38   30    2         0.2534114524E-02      0.4430927899E-01
          0                23           1            34   30     2       0.4537227539E-04      35   29    2         0.2270109163E-02      0.4008412357E-01
          0                24           1            31   31     2       0.3961838516E-04      39   29    2         0.2079103681E-02      0.3630521442E-01
          0                25           1            35   31     2       0.3670669278E-04      35   29    2         0.1881860315E-02      0.3284934076E-01
          0                26           1            31   31     2       0.3288745508E-04      39   29    2         0.1711366461E-02      0.2975409908E-01
          0                27           1            35   31     2       0.2979873070E-04      35   29    2         0.1556795851E-02      0.2692567247E-01
          0                28           1            31   31     2       0.2726876071E-04      39   29    2         0.1405025007E-02      0.2438912671E-01
          0                29           1            35   29     2       0.2422263208E-04      35   29    2         0.1284955062E-02      0.2207312838E-01
          0                30           1            32   32     2       0.2260476466E-04      39   29    2         0.1150626311E-02      0.1999366134E-01
                                                   Max.-Head-Change                         Max.-Flux-Residual
  Residual-Control   Outer-Iter.   Inner-Iter.     Column Row Layer    Maximum-Head-Change  Column Row Layer    Maximum-Flux-Residual          L2-NORM 
          0                31           1            35   29     2       0.1969869182E-04      35   29    2         0.1057999045E-02      0.1809659299E-01
          0                32           1            32   32     2       0.1875130165E-04      39   29    2         0.9400005198E-03      0.1639139773E-01
          0                33           1            35   29     2       0.1602118521E-04      35   25    2         0.8724948375E-03      0.1483710022E-01
          0                34           1            32   32     2       0.1553577293E-04      39   25    2         0.7695394083E-03      0.1343857701E-01
          0                35           1            35   29     2       0.1303014990E-04      35   25    2         0.7204354348E-03      0.1216491074E-01
          0                36           1            32   32     2       0.1285535800E-04      39   25    2         0.6295807638E-03      0.1101779413E-01
          0                37           1            35   29     2       0.1059668600E-04      35   25    2         0.5933887566E-03      0.9973989530E-02
          0                38           1            32   32     2       0.1062364799E-04      32   28    2         0.5194851387E-03      0.9033045750E-02
          0                39           1            35   29     2       0.8616610392E-05      36   28    2         0.4891149615E-03      0.8177578505E-02

    ------------------------------------------------
       NWT REQUIRED           39 OUTER ITERATIONS 
       AND A TOTAL OF         44 INNER ITERATIONS.
    ------------------------------------------------

 OUTPUT CONTROL FOR STRESS PERIOD    1   TIME STEP   25
    SAVE HEAD FOR ALL LAYERS
 SOLVING FOR ZETA FOR LAYER     1 ZONE     2

     849 UPPER PART EQS.       848 LOWER PART EQS.    BAND WIDTH + 1 =   44
 STRESS PERIOD=  1 TIMESTEP= 25 LAYER=  1 ZONE=  2 ACTIVE CELLS= 1697 NUMBER OF EQUATIONS=    1697
 UBUDSV SAVING "      ZETASRF  1" ON UNIT 55 AT TIME STEP 25, STRESS PERIOD    1

 HEAD WILL BE SAVED ON UNIT   51 AT END OF TIME STEP   25, STRESS PERIOD    1
 
 SOLVING FOR HEAD 
                                                   Max.-Head-Change                         Max.-Flux-Residual
  Residual-Control   Outer-Iter.   Inner-Iter.     Column Row Layer    Maximum-Head-Change  Column Row Layer    Maximum-Flux-Residual          L2-NORM 
          0                 1           2            13   30     2      -0.2473661121E-02      11   11    1         0.1889913159E+01      0.1179911364E+02
          0                 2           1            43   46     1      -0.7696826024E-03      49   44    1        -0.3427755745E-01      0.6578778663E+00
          0                 3           1            40   42     2      -0.2940329729E-03      47   41    2        -0.2603075163E-01      0.4793995477E+00
          0                 4           1            42   41     1      -0.4678128742E-03      49   40    1        -0.1685615075E-01      0.3745173932E+00
          0                 5           1            39   37     2      -0.1890028579E-03      31   29    2        -0.1683695237E-01      0.3234502282E+00
          0                 6           1            34   31     2      -0.4405277653E-03      29   31    2        -0.1679361592E-01      0.2772143288E+00
          0                 7           1            32   33     2      -0.1698431663E-03      31   29    2        -0.1940726339E-01      0.2492988894E+00
          0                 8           1            30   29     2      -0.4065158687E-03      29   31    2        -0.1543336806E-01      0.2136911428E+00
          0                 9           1            32   33     2      -0.1396487190E-03      29   31    2        -0.1690010503E-01      0.1933509717E+00
          0                10           1            30   29     2      -0.3161845409E-03      29   31    2        -0.1245765714E-01      0.1653157102E+00
                                                   Max.-Head-Change                         Max.-Flux-Residual
  Residual-Control   Outer-Iter.   Inner-Iter.     Column Row Layer    Maximum-Head-Change  Column Row Layer    Maximum-Flux-Residual          L2-NORM 
          0                11           1            32   33     2      -0.1111682915E-03      29   31    2        -0.1335872573E-01      0.1497258972E+00
          0                12           1            30   29     2      -0.2366543737E-03      29   31    2        -0.9791841221E-02      0.1286979482E+00
          0                13           1            33   32     2      -0.8875060481E-04      29   31    2        -0.1036215948E-01      0.1166586269E+00
          0                14           1            30   29     2      -0.1773989694E-03      29   31    2        -0.7707146223E-02      0.1009938487E+00
          0                15           1            33   32     2      -0.7130239454E-04      29   31    2        -0.8058090129E-02      0.9161981930E-01
          0                16           1            30   29     2      -0.1341366066E-03      31   29    2        -0.6110221144E-02      0.7983603530E-01
          0                17           1            33   32     2      -0.5764055971E-04      29   31    2        -0.6308061918E-02      0.7247441421E-01
          0                18           1            30   29     2      -0.1023811076E-03      31   29    2        -0.4878437077E-02      0.6350853874E-01
          0                19           1            33   32     2      -0.4683555778E-04      29   31    2        -0.4971863865E-02      0.5768510650E-01
          0                20           1            30   29     2      -0.7883116039E-04      31   29    2        -0.3915646296E-02      0.5078911877E-01
                                                   Max.-Head-Change                         Max.-Flux-Residual
  Residual-Control   Outer-Iter.   Inner-Iter.     Column Row Layer    Maximum-Head-Change  Column Row Layer    Maximum-Flux-Residual          L2-NORM 
          0                21           1            33   32     2      -0.3823817191E-04      29   31    2        -0.3942921691E-02      0.4614831811E-01
          0                22           1            31   31     2      -0.6106583357E-04      31   29    2        -0.3157049297E-02      0.4079760402E-01
          0                23           1            33   32     2      -0.3131689206E-04      29   31    2        -0.3142451046E-02      0.3708327072E-01
          0                24           1            31   31     2      -0.4769827966E-04      31   29    2        -0.2554908039E-02      0.3289965774E-01
          0                25           1            33   32     2      -0.2571005655E-04      29   31    2        -0.2516631803E-02      0.2991162319E-01
          0                26           1            31   31     2      -0.3749579679E-04      31   29    2        -0.2073677837E-02      0.2661595137E-01
          0                27           1            33   32     2      -0.2114478008E-04      29   31    2        -0.2023597038E-02      0.2420211111E-01
          0                28           1            31   31     2      -0.2963512481E-04      31   29    2        -0.1686957681E-02      0.2158959590E-01
          0                29           1            33   32     2      -0.1742057174E-04      29   31    2        -0.1632636106E-02      0.1963241495E-01
          0                30           1            31   31     2      -0.2351230100E-04      31   29    2        -0.1374916880E-02      0.1755099641E-01
                                                   Max.-Head-Change                         Max.-Flux-Residual
  Residual-Control   Outer-Iter.   Inner-Iter.     Column Row Layer    Maximum-Head-Change  Column Row Layer    Maximum-Flux-Residual          L2-NORM 
          0                31           1            33   32     2      -0.1436497798E-04      29   31    2        -0.1320717940E-02      0.1596038641E-01
          0                32           1            31   31     2      -0.1873515001E-04      31   29    2        -0.1122155398E-02      0.1429491290E-01
          0                33           1            34   32     2      -0.1186464569E-04      29   31    2        -0.1071059448E-02      0.1299903453E-01
          0                34           1            31   29     2      -0.1498294790E-04      31   29    2        -0.9167850018E-03      0.1166104970E-01
          0                35           1            34   32     2      -0.9812850275E-05      29   31    2        -0.8703803527E-03      0.1060331085E-01

    ------------------------------------------------
       NWT REQUIRED           35 OUTER ITERATIONS 
       AND A TOTAL OF         36 INNER ITERATIONS.
    ------------------------------------------------

 OUTPUT CONTROL FOR STRESS PERIOD    1   TIME STEP   26
    SAVE HEAD FOR ALL LAYERS
 SOLVING FOR ZETA FOR LAYER     1 ZONE     2

     921 UPPER PART EQS.       916 LOWER PART EQS.    BAND WIDTH + 1 =   44
 STRESS PERIOD=  1 TIMESTEP= 26 LAYER=  1 ZONE=  2 ACTIVE CELLS= 1837 NUMBER OF EQUATIONS=    1837
 UBUDSV SAVING "      ZETASRF  1" ON UNIT 55 AT TIME STEP 26, STRESS PERIOD    1

 HEAD WILL BE SAVED ON UNIT   51 AT END OF TIME STEP   26, STRESS PERIOD    1
 
 SOLVING FOR HEAD 
                                                   Max.-Head-Change                         Max.-Flux-Residual
  Residual-Control   Outer-Iter.   Inner-Iter.     Column Row Layer    Maximum-Head-Change  Column Row Layer    Maximum-Flux-Residual          L2-NORM 
          0                 1           6            22   12     1       0.7395926288E-02      18   10    1        -0.1995586170E+01      0.3036891466E+02
          0                 2           1            30   31     1       0.4354944365E-03      30   31    1         0.2262326230E-01      0.3741562615E+00
          0                 3           1            32   32     2       0.5070216531E-03      33   31    2         0.1943259581E-01      0.3301852249E+00
          0                 4           1            30   31     1       0.3068039225E-03      37   31    2         0.1568369216E-01      0.2953299519E+00
          0                 5           1            33   31     2       0.3760164984E-03      33   31    2         0.1432000912E-01      0.2655564268E+00
          0                 6           1            31   30     1       0.2353745232E-03      38   30    2         0.1286018211E-01      0.2390948612E+00
          0                 7           1            33   31     2       0.2887688836E-03      34   30    2         0.1124877255E-01      0.2155087834E+00
          0                 8           1            31   30     1       0.1886202556E-03      38   30    2         0.1068011977E-01      0.1944642383E+00
          0                 9           1            33   31     2       0.2264259143E-03      34   30    2         0.9101980996E-02      0.1754226529E+00
          0                10           1            31   31     2       0.1546226081E-03      38   30    2         0.8862513680E-02      0.1584763858E+00
                                                   Max.-Head-Change                         Max.-Flux-Residual
  Residual-Control   Outer-Iter.   Inner-Iter.     Column Row Layer    Maximum-Head-Change  Column Row Layer    Maximum-Flux-Residual          L2-NORM 
          0                11           1            33   31     2       0.1795814680E-03      42   30    2         0.7508870755E-02      0.1430449570E+00
          0                12           1            31   31     2       0.1278973353E-03      38   30    2         0.7336571142E-02      0.1293204027E+00
          0                13           1            34   30     2       0.1434500925E-03      42   30    2         0.6208028888E-02      0.1167929414E+00
          0                14           1            31   31     2       0.1061860281E-03      38   30    2         0.6054840402E-02      0.1056440247E+00
          0                15           1            34   30     2       0.1152675503E-03      42   30    2         0.5117901677E-02      0.9545689981E-01
          0                16           1            31   31     2       0.8830580555E-04      38   30    2         0.4980717654E-02      0.8638091382E-01
          0                17           1            34   30     2       0.9280637789E-04      35   29    2         0.4250569984E-02      0.7808375262E-01
          0                18           1            31   31     2       0.7347940753E-04      38   30    2         0.4083887653E-02      0.7068281191E-01
          0                19           1            34   30     2       0.7482532738E-04      35   29    2         0.3539692162E-02      0.6391546025E-01
          0                20           1            31   31     2       0.6114109514E-04      38   30    2         0.3338170548E-02      0.5787211112E-01
                                                   Max.-Head-Change                         Max.-Flux-Residual
  Residual-Control   Outer-Iter.   Inner-Iter.     Column Row Layer    Maximum-Head-Change  Column Row Layer    Maximum-Flux-Residual          L2-NORM 
          0                21           1            34   30     2       0.6038927495E-04      35   29    2         0.2944795326E-02      0.5234587481E-01
          0                22           1            31   31     2       0.5085399144E-04      39   29    2         0.2728305578E-02      0.4740551279E-01
          0                23           1            34   30     2       0.4877555795E-04      35   29    2         0.2446477175E-02      0.4288826938E-01
          0                24           1            31   31     2       0.4226937722E-04      39   29    2         0.2250808238E-02      0.3884586922E-01
          0                25           1            35   31     2       0.3947535456E-04      35   29    2         0.2029019720E-02      0.3515039737E-01
          0                26           1            31   31     2       0.3510357596E-04      39   29    2         0.1851965613E-02      0.3184029964E-01
          0                27           1            35   29     2       0.3206952368E-04      35   29    2         0.1679498105E-02      0.2881515124E-01
          0                28           1            31   31     2       0.2912315236E-04      39   29    2         0.1519915717E-02      0.2610311532E-01
          0                29           1            35   29     2       0.2606364129E-04      35   29    2         0.1387175645E-02      0.2362545903E-01
          0                30           1            32   32     2       0.2418340979E-04      39   29    2         0.1244340247E-02      0.2140243229E-01
                                                   Max.-Head-Change                         Max.-Flux-Residual
  Residual-Control   Outer-Iter.   Inner-Iter.     Column Row Layer    Maximum-Head-Change  Column Row Layer    Maximum-Flux-Residual          L2-NORM 
          0                31           1            35   29     2       0.2118653363E-04      35   29    2         0.1143066613E-02      0.1937241826E-01
          0                32           1            32   32     2       0.2007695742E-04      39   29    2         0.1016323595E-02      0.1754962005E-01
          0                33           1            35   29     2       0.1722342462E-04      35   29    2         0.9396082720E-03      0.1588592088E-01
          0                34           1            32   32     2       0.1664805311E-04      39   29    2         0.8282073550E-03      0.1439094247E-01
          0                35           1            35   29     2       0.1400162118E-04      35   25    2         0.7743402216E-03      0.1302720737E-01
          0                36           1            32   32     2       0.1378738346E-04      32   28    2         0.6784896100E-03      0.1180090248E-01
          0                37           1            35   29     2       0.1138183009E-04      36   28    2         0.6392321404E-03      0.1068292459E-01
          0                38           1            32   32     2       0.1140328571E-04      32   28    2         0.5615445909E-03      0.9676918985E-02
          0                39           1            35   29     2       0.9251396935E-05      36   28    2         0.5298579021E-03      0.8760362704E-02

    ------------------------------------------------
       NWT REQUIRED           39 OUTER ITERATIONS 
       AND A TOTAL OF         44 INNER ITERATIONS.
    ------------------------------------------------

 OUTPUT CONTROL FOR STRESS PERIOD    1   TIME STEP   27
    SAVE HEAD FOR ALL LAYERS
 SOLVING FOR ZETA FOR LAYER     1 ZONE     2

     849 UPPER PART EQS.       856 LOWER PART EQS.    BAND WIDTH + 1 =   44
 STRESS PERIOD=  1 TIMESTEP= 27 LAYER=  1 ZONE=  2 ACTIVE CELLS= 1705 NUMBER OF EQUATIONS=    1705
 UBUDSV SAVING "      ZETASRF  1" ON UNIT 55 AT TIME STEP 27, STRESS PERIOD    1

 HEAD WILL BE SAVED ON UNIT   51 AT END OF TIME STEP   27, STRESS PERIOD    1
 
 SOLVING FOR HEAD 
                                                   Max.-Head-Change                         Max.-Flux-Residual
  Residual-Control   Outer-Iter.   Inner-Iter.     Column Row Layer    Maximum-Head-Change  Column Row Layer    Maximum-Flux-Residual          L2-NORM 
          0                 1           2            13   30     2      -0.2689197548E-02      48   52    1         0.1233477658E+01      0.1298013367E+02
          0                 2           1            43   46     1      -0.8456997889E-03      49   44    1        -0.4103635389E-01      0.7689803428E+00
          0                 3           1            40   42     2      -0.3631965292E-03      47   41    2        -0.3028093705E-01      0.5625227950E+00
          0                 4           1            42   41     1      -0.5026334281E-03      49   40    1        -0.1993712836E-01      0.4462036924E+00
          0                 5           1            39   37     2      -0.2396895538E-03      32   28    2        -0.1923786841E-01      0.3854927340E+00
          0                 6           1            34   33     2      -0.4424461122E-03      32   28    2        -0.1970000599E-01      0.3341818994E+00
          0                 7           1            30   29     2      -0.2133605864E-03      32   28    2        -0.2182073287E-01      0.3005766899E+00
          0                 8           1            31   31     2      -0.4112010460E-03      32   28    2        -0.1849713012E-01      0.2630104472E+00
          0                 9           1            29   30     2      -0.1824536365E-03      32   28    2        -0.1944170126E-01      0.2384290985E+00
          0                10           1            31   31     2      -0.3340357609E-03      32   28    2        -0.1544443889E-01      0.2086703972E+00
                                                   Max.-Head-Change                         Max.-Flux-Residual
  Residual-Control   Outer-Iter.   Inner-Iter.     Column Row Layer    Maximum-Head-Change  Column Row Layer    Maximum-Flux-Residual          L2-NORM 
          0                11           1            29   30     2      -0.1500451263E-03      32   28    2        -0.1589653338E-01      0.1894856438E+00
          0                12           1            31   31     2      -0.2611736943E-03      32   28    2        -0.1250888398E-01      0.1663440962E+00
          0                13           1            29   30     2      -0.1223672480E-03      32   28    2        -0.1270079169E-01      0.1511389086E+00
          0                14           1            31   31     2      -0.2031353679E-03      32   28    2        -0.1008159079E-01      0.1331969582E+00
          0                15           1            29   30     2      -0.9981987956E-04      32   28    2        -0.1010093997E-01      0.1210772116E+00
          0                16           1            31   31     2      -0.1584579751E-03      32   28    2        -0.8138091766E-02      0.1070850950E+00
          0                17           1            29   30     2      -0.8160888944E-04      32   28    2        -0.8040157949E-02      0.9737199002E-01
          0                18           1            31   31     2      -0.1242179883E-03      32   28    2        -0.6589082108E-02      0.8639241739E-01
          0                19           1            29   30     2      -0.6694008891E-04      32   28    2        -0.6415624243E-02      0.7856924182E-01
          0                20           1            31   31     2      -0.9772754113E-04      32   28    2        -0.5351817477E-02      0.6990491991E-01
                                                   Max.-Head-Change                         Max.-Flux-Residual
  Residual-Control   Outer-Iter.   Inner-Iter.     Column Row Layer    Maximum-Head-Change  Column Row Layer    Maximum-Flux-Residual          L2-NORM 
          0                21           1            29   30     2      -0.5508947313E-04      32   28    2        -0.5132094632E-02      0.6358084633E-01
          0                22           1            31   31     2      -0.7713767409E-04      32   28    2        -0.4359896468E-02      0.5671327218E-01
          0                23           1            29   30     2      -0.4548951349E-04      32   28    2        -0.4115769019E-02      0.5158300186E-01
          0                24           1            31   31     2      -0.6104023227E-04      32   28    2        -0.3561589042E-02      0.4611909990E-01
          0                25           1            34   31     2      -0.3769542765E-04      32   28    2        -0.3308537774E-02      0.4194404681E-01
          0                26           1            31   31     2      -0.4839691736E-04      32   28    2        -0.2916789973E-02      0.3758305373E-01
          0                27           1            30   31     1      -0.3136925526E-04      32   28    2        -0.2665491424E-02      0.3417719221E-01
          0                28           1            31   31     2      -0.3849392310E-04      32   28    2        -0.2393797216E-02      0.3068533428E-01
          0                29           1            30   31     1      -0.2615608391E-04      32   28    2        -0.2152533493E-02      0.2789917053E-01
          0                30           1            31   31     2      -0.3070147505E-04      32   28    2        -0.1968008643E-02      0.2509379766E-01
                                                   Max.-Head-Change                         Max.-Flux-Residual
  Residual-Control   Outer-Iter.   Inner-Iter.     Column Row Layer    Maximum-Head-Change  Column Row Layer    Maximum-Flux-Residual          L2-NORM 
          0                31           1            30   31     1      -0.2183401127E-04      28   32    2        -0.1744021304E-02      0.2280916916E-01
          0                32           1            31   31     2      -0.2454564522E-04      32   28    2        -0.1620239134E-02      0.2054861740E-01
          0                33           1            30   31     1      -0.1824022776E-04      28   32    2        -0.1423687301E-02      0.1867144327E-01
          0                34           1            31   29     2      -0.1967466321E-04      32   28    2        -0.1335388146E-02      0.1684511941E-01
          0                35           1            30   31     1      -0.1524388834E-04      28   32    2        -0.1163458010E-02      0.1530011878E-01
          0                36           1            31   29     2      -0.1581099628E-04      32   28    2        -0.1101486156E-02      0.1382109379E-01
          0                37           1            31   30     1      -0.1275307648E-04      28   32    2        -0.9516297454E-03      0.1254770886E-01
          0                38           1            31   29     2      -0.1272683385E-04      32   28    2        -0.9090141385E-03      0.1134747572E-01
          0                39           1            31   30     1      -0.1067095744E-04      28   32    2        -0.7788764171E-03      0.1029683471E-01
          0                40           1            31   29     2      -0.1026180601E-04      32   28    2        -0.7503487725E-03      0.9321064459E-02
          0                41           1            31   30     1      -0.8923886004E-05      28   32    2        -0.6378032094E-03      0.8453484540E-02

    ------------------------------------------------
       NWT REQUIRED           41 OUTER ITERATIONS 
       AND A TOTAL OF         42 INNER ITERATIONS.
    ------------------------------------------------

 OUTPUT CONTROL FOR STRESS PERIOD    1   TIME STEP   28
    SAVE HEAD FOR ALL LAYERS
 SOLVING FOR ZETA FOR LAYER     1 ZONE     2

     921 UPPER PART EQS.       924 LOWER PART EQS.    BAND WIDTH + 1 =   44
 STRESS PERIOD=  1 TIMESTEP= 28 LAYER=  1 ZONE=  2 ACTIVE CELLS= 1845 NUMBER OF EQUATIONS=    1845
 UBUDSV SAVING "      ZETASRF  1" ON UNIT 55 AT TIME STEP 28, STRESS PERIOD    1

 HEAD WILL BE SAVED ON UNIT   51 AT END OF TIME STEP   28, STRESS PERIOD    1
 
 SOLVING FOR HEAD 
                                                   Max.-Head-Change                         Max.-Flux-Residual
  Residual-Control   Outer-Iter.   Inner-Iter.     Column Row Layer    Maximum-Head-Change  Column Row Layer    Maximum-Flux-Residual          L2-NORM 
          0                 1           9            49   31     1       0.9089961352E-02      20   10    1        -0.2213308004E+01      0.3281948317E+02
          0                 2           1            47   18     1       0.8165982796E-04      48   45    1         0.8373514299E-02      0.1156544582E+00
          0                 3           1            39   45     2       0.6690530747E-04      39   45    2         0.4842512428E-02      0.7037816160E-01
          0                 4           1            42   42     2       0.4228299489E-04      42   42    2         0.3379981346E-02      0.5375142346E-01
          0                 5           1            39   45     2       0.4018581668E-04      39   45    2         0.2663959680E-02      0.4436700703E-01
          0                 6           1            42   42     2       0.2991448962E-04      42   42    2         0.2105968682E-02      0.3851951870E-01
          0                 7           1            39   41     2       0.2917216307E-04      37   39    2         0.1834186707E-02      0.3412386557E-01
          0                 8           1            35   37     2       0.2789821087E-04      26   31    1         0.1668365221E-02      0.3078102051E-01
          0                 9           1            31   31     2       0.2468921748E-04      26   31    1         0.1673032700E-02      0.2786576036E-01
          0                10           1            30   31     1       0.2557499263E-04      31   30    1         0.1538469512E-02      0.2521297464E-01
                                                   Max.-Head-Change                         Max.-Flux-Residual
  Residual-Control   Outer-Iter.   Inner-Iter.     Column Row Layer    Maximum-Head-Change  Column Row Layer    Maximum-Flux-Residual          L2-NORM 
          0                11           1            31   31     2       0.2158634690E-04      26   31    1         0.1483914613E-02      0.2296406312E-01
          0                12           1            30   31     1       0.2207457097E-04      31   30    1         0.1332047010E-02      0.2072895919E-01
          0                13           1            31   31     2       0.1833217996E-04      26   31    1         0.1253198731E-02      0.1889956497E-01
          0                14           1            31   30     1       0.1834406423E-04      31   30    1         0.1117881125E-02      0.1705040711E-01
          0                15           1            31   31     2       0.1536905621E-04      26   31    1         0.1037482239E-02      0.1553682662E-01
          0                16           1            31   30     1       0.1503594717E-04      31   30    1         0.9260326936E-03      0.1402597714E-01
          0                17           1            31   31     2       0.1280419868E-04      32   28    2         0.8562684097E-03      0.1276912032E-01
          0                18           1            31   30     1       0.1226430148E-04      31   30    1         0.7629390832E-03      0.1153947270E-01
          0                19           1            31   31     2       0.1063331247E-04      32   28    2         0.7045174426E-03      0.1049570548E-01
          0                20           1            31   30     1       0.9991189567E-05      26   31    1         0.6298789582E-03      0.9495339256E-02

    ------------------------------------------------
       NWT REQUIRED           20 OUTER ITERATIONS 
       AND A TOTAL OF         28 INNER ITERATIONS.
    ------------------------------------------------

 OUTPUT CONTROL FOR STRESS PERIOD    1   TIME STEP   29
    SAVE HEAD FOR ALL LAYERS
 SOLVING FOR ZETA FOR LAYER     1 ZONE     2

     857 UPPER PART EQS.       856 LOWER PART EQS.    BAND WIDTH + 1 =   44
 STRESS PERIOD=  1 TIMESTEP= 29 LAYER=  1 ZONE=  2 ACTIVE CELLS= 1713 NUMBER OF EQUATIONS=    1713
 UBUDSV SAVING "      ZETASRF  1" ON UNIT 55 AT TIME STEP 29, STRESS PERIOD    1

 HEAD WILL BE SAVED ON UNIT   51 AT END OF TIME STEP   29, STRESS PERIOD    1
 
 SOLVING FOR HEAD 
                                                   Max.-Head-Change                         Max.-Flux-Residual
  Residual-Control   Outer-Iter.   Inner-Iter.     Column Row Layer    Maximum-Head-Change  Column Row Layer    Maximum-Flux-Residual          L2-NORM 
          0                 1           2            13   30     2      -0.2903750586E-02      51   51    1         0.2058081150E+01      0.1659298172E+02
          0                 2           1            43   46     1      -0.8742236445E-03      49   32    1        -0.4412101266E-01      0.8467306149E+00
          0                 3           1            40   42     2      -0.4170758911E-03      47   41    2        -0.3272715682E-01      0.6330248239E+00
          0                 4           1            42   41     1      -0.5160650557E-03      49   40    1        -0.2237856859E-01      0.5049455803E+00
          0                 5           1            40   38     2      -0.2911991112E-03      29   31    2        -0.2055577490E-01      0.4392809217E+00
          0                 6           1            34   31     2      -0.4237816911E-03      29   31    2        -0.2239705929E-01      0.3827174393E+00
          0                 7           1            32   33     2      -0.2619608065E-03      29   31    2        -0.2363242812E-01      0.3459046993E+00
          0                 8           1            32   32     2      -0.3857340558E-03      29   31    2        -0.2172075832E-01      0.3063655520E+00
          0                 9           1            32   31     1      -0.2348354893E-03      29   31    2        -0.2145077377E-01      0.2788598324E+00
          0                10           1            31   31     2      -0.3166159280E-03      29   31    2        -0.1875526382E-01      0.2481817366E+00
                                                   Max.-Head-Change                         Max.-Flux-Residual
  Residual-Control   Outer-Iter.   Inner-Iter.     Column Row Layer    Maximum-Head-Change  Column Row Layer    Maximum-Flux-Residual          L2-NORM 
          0                11           1            32   31     1      -0.2013160115E-03      29   31    2        -0.1805032186E-01      0.2260452555E+00
          0                12           1            31   31     2      -0.2523045172E-03      29   31    2        -0.1563100276E-01      0.2019733512E+00
          0                13           1            33   30     2      -0.1700998025E-03      29   31    2        -0.1483929021E-01      0.1838647281E+00
          0                14           1            31   31     2      -0.2002742086E-03      29   31    2        -0.1288356211E-01      0.1648398522E+00
          0                15           1            33   31     2      -0.1429401535E-03      29   31    2        -0.1211729396E-01      0.1499504096E+00
          0                16           1            31   31     2      -0.1593474362E-03      29   31    2        -0.1058403557E-01      0.1348038973E+00
          0                17           1            33   31     2      -0.1198014724E-03      29   31    2        -0.9880042475E-02      0.1225404861E+00
          0                18           1            31   31     2      -0.1273183799E-03      29   31    2        -0.8687631715E-02      0.1104016057E+00
          0                19           1            33   31     2      -0.1001467064E-03      29   31    2        -0.8059175353E-02      0.1002871714E+00
          0                20           1            31   31     2      -0.1021440438E-03      29   31    2        -0.7130120365E-02      0.9050855370E-01
                                                   Max.-Head-Change                         Max.-Flux-Residual
  Residual-Control   Outer-Iter.   Inner-Iter.     Column Row Layer    Maximum-Head-Change  Column Row Layer    Maximum-Flux-Residual          L2-NORM 
          0                21           1            33   31     2      -0.8358508758E-04      29   31    2        -0.6579959424E-02      0.8216031953E-01
          0                22           1            31   31     2      -0.8218372041E-04      29   31    2        -0.5852510388E-02      0.7425240222E-01
          0                23           1            33   31     2      -0.6969600261E-04      29   31    2        -0.5376727043E-02      0.6735949781E-01
          0                24           1            31   31     2      -0.6626296994E-04      29   31    2        -0.4804634731E-02      0.6094702425E-01
          0                25           1            30   31     1      -0.5812810768E-04      29   31    2        -0.4396576582E-02      0.5525377569E-01
          0                26           1            31   31     2      -0.5352270613E-04      29   31    2        -0.3944925391E-02      0.5004248599E-01
          0                27           1            30   31     1      -0.4851609343E-04      29   31    2        -0.3597166454E-02      0.4533836386E-01
          0                28           1            31   31     2      -0.4326814985E-04      29   31    2        -0.3239177781E-02      0.4109695375E-01
          0                29           1            30   31     1      -0.4049394800E-04      29   31    2        -0.2944040507E-02      0.3720927919E-01
          0                30           1            31   31     2      -0.3500427540E-04      29   31    2        -0.2659695955E-02      0.3375301591E-01
                                                   Max.-Head-Change                         Max.-Flux-Residual
  Residual-Control   Outer-Iter.   Inner-Iter.     Column Row Layer    Maximum-Head-Change  Column Row Layer    Maximum-Flux-Residual          L2-NORM 
          0                31           1            30   31     1      -0.3376531146E-04      29   31    2        -0.2410008138E-02      0.3054030996E-01
          0                32           1            31   31     2      -0.2834923731E-04      29   31    2        -0.2183388245E-02      0.2772086913E-01
          0                33           1            30   31     1      -0.2812907145E-04      29   31    2        -0.1973288150E-02      0.2506659288E-01
          0                34           1            31   31     2      -0.2298161286E-04      29   31    2        -0.1791900286E-02      0.2276429137E-01
          0                35           1            30   31     1      -0.2340680656E-04      29   31    2        -0.1615911152E-02      0.2057210580E-01
          0                36           1            31   29     2      -0.1866445937E-04      29   31    2        -0.1470076569E-02      0.1869046185E-01
          0                37           1            30   31     1      -0.1944885011E-04      29   31    2        -0.1323338178E-02      0.1688084321E-01
          0                38           1            31   29     2      -0.1517001254E-04      29   31    2        -0.1205503779E-02      0.1534214114E-01
          0                39           1            30   31     1      -0.1613861920E-04      29   31    2        -0.1083710207E-02      0.1384923820E-01
          0                40           1            31   29     2      -0.1233761837E-04      29   31    2        -0.9881180461E-03      0.1259033663E-01
                                                   Max.-Head-Change                         Max.-Flux-Residual
  Residual-Control   Outer-Iter.   Inner-Iter.     Column Row Layer    Maximum-Head-Change  Column Row Layer    Maximum-Flux-Residual          L2-NORM 
          0                41           1            31   30     1      -0.1337919036E-04      29   31    2        -0.8874256388E-03      0.1135956073E-01
          0                42           1            31   29     2      -0.1004125565E-04      32   28    2        -0.8119685755E-03      0.1032911871E-01
          0                43           1            31   30     1      -0.1107984991E-04      29   31    2        -0.7266521231E-03      0.9315286240E-02
          0                44           1            31   29     2      -0.8177364098E-05      32   28    2        -0.6674190620E-03      0.8471624156E-02

    ------------------------------------------------
       NWT REQUIRED           44 OUTER ITERATIONS 
       AND A TOTAL OF         45 INNER ITERATIONS.
    ------------------------------------------------

 OUTPUT CONTROL FOR STRESS PERIOD    1   TIME STEP   30
    SAVE HEAD FOR ALL LAYERS
 SOLVING FOR ZETA FOR LAYER     1 ZONE     2

     921 UPPER PART EQS.       916 LOWER PART EQS.    BAND WIDTH + 1 =   44
 STRESS PERIOD=  1 TIMESTEP= 30 LAYER=  1 ZONE=  2 ACTIVE CELLS= 1837 NUMBER OF EQUATIONS=    1837
 UBUDSV SAVING "      ZETASRF  1" ON UNIT 55 AT TIME STEP 30, STRESS PERIOD    1

 HEAD WILL BE SAVED ON UNIT   51 AT END OF TIME STEP   30, STRESS PERIOD    1
 
 SOLVING FOR HEAD 
                                                   Max.-Head-Change                         Max.-Flux-Residual
  Residual-Control   Outer-Iter.   Inner-Iter.     Column Row Layer    Maximum-Head-Change  Column Row Layer    Maximum-Flux-Residual          L2-NORM 
          0                 1           9            49   31     1       0.9785419503E-02      10   31    1        -0.2456894828E+01      0.3546505567E+02
          0                 2           1            14   39     1       0.8800930319E-04      48   45    1         0.9134638439E-02      0.1240760776E+00
          0                 3           1            39   45     2       0.7328859404E-04      39   45    2         0.5337579546E-02      0.7573310066E-01
          0                 4           1            42   42     2       0.4627205630E-04      42   42    2         0.3711492444E-02      0.5813163060E-01
          0                 5           1            39   45     2       0.4389853127E-04      39   45    2         0.2942240286E-02      0.4813396547E-01
          0                 6           1            35   41     2       0.3303267183E-04      42   42    2         0.2311820986E-02      0.4190192672E-01
          0                 7           1            39   41     2       0.3201242558E-04      29   32    1         0.2214367378E-02      0.3715656669E-01
          0                 8           1            35   35     2       0.3096660161E-04      29   32    1         0.2219214887E-02      0.3352286886E-01
          0                 9           1            31   29     2       0.2756382061E-04      29   32    1         0.2258493854E-02      0.3033569020E-01
          0                10           1            30   31     1       0.2817642441E-04      29   32    1         0.2072886611E-02      0.2744929905E-01
                                                   Max.-Head-Change                         Max.-Flux-Residual
  Residual-Control   Outer-Iter.   Inner-Iter.     Column Row Layer    Maximum-Head-Change  Column Row Layer    Maximum-Flux-Residual          L2-NORM 
          0                11           1            31   29     2       0.2403064171E-04      29   32    1         0.2017162005E-02      0.2496919491E-01
          0                12           1            30   31     1       0.2409793589E-04      29   32    1         0.1794321478E-02      0.2255698318E-01
          0                13           1            31   29     2       0.2044258737E-04      29   32    1         0.1709587571E-02      0.2052874340E-01
          0                14           1            30   31     1       0.1987700449E-04      29   32    1         0.1508255514E-02      0.1854726021E-01
          0                15           1            31   29     2       0.1719351026E-04      29   32    1         0.1418841650E-02      0.1686272871E-01
          0                16           1            30   31     1       0.1618921208E-04      29   32    1         0.1252548449E-02      0.1525273202E-01
          0                17           1            31   29     2       0.1436746693E-04      29   32    1         0.1167834970E-02      0.1384947550E-01
          0                18           1            31   30     1       0.1316103785E-04      29   32    1         0.1034833218E-02      0.1254464604E-01
          0                19           1            31   29     2       0.1195701990E-04      29   32    1         0.9581601219E-03      0.1137654060E-01
          0                20           1            32   31     1       0.1070032059E-04      29   32    1         0.8530444281E-03      0.1031811045E-01
          0                21           1            31   29     2       0.9922017237E-05      29   32    1         0.7852239792E-03      0.9347333703E-02

    ------------------------------------------------
       NWT REQUIRED           21 OUTER ITERATIONS 
       AND A TOTAL OF         29 INNER ITERATIONS.
    ------------------------------------------------

 OUTPUT CONTROL FOR STRESS PERIOD    1   TIME STEP   31
    SAVE HEAD FOR ALL LAYERS
 SOLVING FOR ZETA FOR LAYER     1 ZONE     2

     857 UPPER PART EQS.       864 LOWER PART EQS.    BAND WIDTH + 1 =   44
 STRESS PERIOD=  1 TIMESTEP= 31 LAYER=  1 ZONE=  2 ACTIVE CELLS= 1721 NUMBER OF EQUATIONS=    1721
 UBUDSV SAVING "      ZETASRF  1" ON UNIT 55 AT TIME STEP 31, STRESS PERIOD    1

 HEAD WILL BE SAVED ON UNIT   51 AT END OF TIME STEP   31, STRESS PERIOD    1
 
 SOLVING FOR HEAD 
                                                   Max.-Head-Change                         Max.-Flux-Residual
  Residual-Control   Outer-Iter.   Inner-Iter.     Column Row Layer    Maximum-Head-Change  Column Row Layer    Maximum-Flux-Residual          L2-NORM 
          0                 1           4            49   29     2      -0.4861469211E-02      10   16    1         0.1682025559E+01      0.1875099821E+02
          0                 2           1            35   37     2      -0.5508922944E-03      37   39    2        -0.2762118468E-01      0.4632666966E+00
          0                 3           1            31   30     1      -0.4705880006E-03      40   37    1        -0.2318393205E-01      0.4047502010E+00
          0                 4           1            30   30     2      -0.4901293748E-03      36   32    2        -0.1920567962E-01      0.3637584933E+00
          0                 5           1            31   30     1      -0.3219991355E-03      40   37    1        -0.1674096126E-01      0.3272131446E+00
          0                 6           1            30   30     2      -0.4122009468E-03      37   31    2        -0.1484477178E-01      0.2945440399E+00
          0                 7           1            32   30     2      -0.2389726928E-03      41   31    2        -0.1354062253E-01      0.2657370586E+00
          0                 8           1            30   31     1      -0.3418027564E-03      37   31    2        -0.1190947917E-01      0.2385741826E+00
          0                 9           1            33   31     2      -0.1880002394E-03      41   31    2        -0.1166866954E-01      0.2153296803E+00
          0                10           1            31   30     1      -0.2803048812E-03      37   31    2        -0.9658396308E-02      0.1929656322E+00
                                                   Max.-Head-Change                         Max.-Flux-Residual
  Residual-Control   Outer-Iter.   Inner-Iter.     Column Row Layer    Maximum-Head-Change  Column Row Layer    Maximum-Flux-Residual          L2-NORM 
          0                11           1            33   31     2      -0.1503475788E-03      41   31    2        -0.9828024667E-02      0.1741710895E+00
          0                12           1            31   30     1      -0.2281056611E-03      38   30    2        -0.7857079157E-02      0.1559290403E+00
          0                13           1            33   31     2      -0.1208392214E-03      41   31    2        -0.8152946773E-02      0.1407422292E+00
          0                14           1            31   31     2      -0.1849494175E-03      38   30    2        -0.6465372917E-02      0.1259464143E+00
          0                15           1            33   31     2      -0.9734752145E-04      41   31    2        -0.6687121254E-02      0.1136832741E+00
          0                16           1            31   31     2      -0.1498092964E-03      38   30    2        -0.5308516530E-02      0.1017202957E+00
          0                17           1            34   30     2      -0.7864975898E-04      41   31    2        -0.5435049524E-02      0.9182131645E-01
          0                18           1            31   31     2      -0.1211581565E-03      38   30    2        -0.4347419086E-02      0.8216471483E-01
          0                19           1            34   30     2      -0.6383022158E-04      41   31    2        -0.4383935450E-02      0.7417376684E-01
          0                20           1            31   31     2      -0.9786517922E-04      38   30    2        -0.3551068149E-02      0.6638623069E-01
                                                   Max.-Head-Change                         Max.-Flux-Residual
  Residual-Control   Outer-Iter.   Inner-Iter.     Column Row Layer    Maximum-Head-Change  Column Row Layer    Maximum-Flux-Residual          L2-NORM 
          0                21           1            34   30     2      -0.5182177908E-04      41   31    2        -0.3513453512E-02      0.5993527058E-01
          0                22           1            31   31     2      -0.7897757781E-04      38   30    2        -0.2893311353E-02      0.5365835410E-01
          0                23           1            34   30     2      -0.4208791826E-04      41   27    2        -0.2813916563E-02      0.4844921399E-01
          0                24           1            31   31     2      -0.6367115594E-04      38   30    2        -0.2352037497E-02      0.4339130367E-01
          0                25           1            34   30     2      -0.3420096622E-04      42   30    2        -0.2260933432E-02      0.3918379421E-01
          0                26           1            31   31     2      -0.5127039284E-04      38   30    2        -0.1908295900E-02      0.3510900821E-01
          0                27           1            34   30     2      -0.2780618681E-04      35   29    2        -0.1835372904E-02      0.3171078834E-01
          0                28           1            31   31     2      -0.4125452934E-04      38   30    2        -0.1545560567E-02      0.2842767732E-01
          0                29           1            34   30     2      -0.2262334141E-04      35   29    2        -0.1506533108E-02      0.2568164903E-01
          0                30           1            31   31     2      -0.3316699433E-04      38   30    2        -0.1249977230E-02      0.2303603495E-01
                                                   Max.-Head-Change                         Max.-Flux-Residual
  Residual-Control   Outer-Iter.   Inner-Iter.     Column Row Layer    Maximum-Head-Change  Column Row Layer    Maximum-Flux-Residual          L2-NORM 
          0                31           1            34   30     2      -0.1842325414E-04      35   29    2        -0.1233945097E-02      0.2081604853E-01
          0                32           1            31   31     2      -0.2664450145E-04      38   30    2        -0.1009748067E-02      0.1868355506E-01
          0                33           1            34   30     2      -0.1501994587E-04      35   29    2        -0.1008647839E-02      0.1688774006E-01
          0                34           1            31   31     2      -0.2138936141E-04      38   30    2        -0.8149642283E-03      0.1516820435E-01
          0                35           1            35   29     2      -0.1230933050E-04      35   29    2        -0.8229792784E-03      0.1371447399E-01
          0                36           1            31   31     2      -0.1715967088E-04      31   29    2        -0.6591940266E-03      0.1232721522E-01
          0                37           1            35   29     2      -0.1010722875E-04      35   29    2        -0.6704038275E-03      0.1114951478E-01
          0                38           1            31   31     2      -0.1376143811E-04      31   29    2        -0.5384708219E-03      0.1002952454E-01
          0                39           1            35   29     2      -0.8309453539E-05      35   29    2        -0.5453538128E-03      0.9074492744E-02

    ------------------------------------------------
       NWT REQUIRED           39 OUTER ITERATIONS 
       AND A TOTAL OF         42 INNER ITERATIONS.
    ------------------------------------------------

 OUTPUT CONTROL FOR STRESS PERIOD    1   TIME STEP   32
    SAVE HEAD FOR ALL LAYERS
 SOLVING FOR ZETA FOR LAYER     1 ZONE     2

     921 UPPER PART EQS.       924 LOWER PART EQS.    BAND WIDTH + 1 =   44
 STRESS PERIOD=  1 TIMESTEP= 32 LAYER=  1 ZONE=  2 ACTIVE CELLS= 1845 NUMBER OF EQUATIONS=    1845
 UBUDSV SAVING "      ZETASRF  1" ON UNIT 55 AT TIME STEP 32, STRESS PERIOD    1

 HEAD WILL BE SAVED ON UNIT   51 AT END OF TIME STEP   32, STRESS PERIOD    1
 
 SOLVING FOR HEAD 
                                                   Max.-Head-Change                         Max.-Flux-Residual
  Residual-Control   Outer-Iter.   Inner-Iter.     Column Row Layer    Maximum-Head-Change  Column Row Layer    Maximum-Flux-Residual          L2-NORM 
          0                 1           9            50   31     1       0.1049833609E-01      31   52    1        -0.2723188238E+01      0.3668514575E+02
          0                 2           1            14   39     1       0.9347850785E-04      48   41    1         0.8971357684E-02      0.1286366735E+00
          0                 3           1            39   45     2       0.7722723397E-04      39   45    2         0.5525349256E-02      0.7928279807E-01
          0                 4           1            40   43     1       0.4939412375E-04      42   42    2         0.3839099318E-02      0.6127652236E-01
          0                 5           1            39   41     2       0.4753885244E-04      39   41    2         0.3197140496E-02      0.5093389835E-01
          0                 6           1            35   41     2       0.3564522876E-04      42   38    2         0.2406123325E-02      0.4425475920E-01
          0                 7           1            39   41     2       0.3490152373E-04      39   41    2         0.2390856018E-02      0.3918912309E-01
          0                 8           1            35   33     2       0.3400513978E-04      27   37    2         0.1965609666E-02      0.3520758593E-01
          0                 9           1            31   31     2       0.2962826972E-04      39   41    2         0.1914722188E-02      0.3180627721E-01
          0                10           1            34   30     2       0.3129290083E-04      28   36    2         0.1719637456E-02      0.2869344268E-01
                                                   Max.-Head-Change                         Max.-Flux-Residual
  Residual-Control   Outer-Iter.   Inner-Iter.     Column Row Layer    Maximum-Head-Change  Column Row Layer    Maximum-Flux-Residual          L2-NORM 
          0                11           1            31   31     2       0.2538198909E-04      27   37    2         0.1605556936E-02      0.2607820752E-01
          0                12           1            34   30     2       0.2685583177E-04      28   36    2         0.1455768311E-02      0.2349593701E-01
          0                13           1            31   31     2       0.2134874542E-04      27   37    2         0.1338661008E-02      0.2139116181E-01
          0                14           1            34   30     2       0.2216908164E-04      28   36    2         0.1211070812E-02      0.1926363277E-01
          0                15           1            31   31     2       0.1787068677E-04      27   37    2         0.1102606326E-02      0.1754069693E-01
          0                16           1            34   30     2       0.1799333057E-04      28   36    2         0.1000314644E-02      0.1580598157E-01
          0                17           1            31   31     2       0.1493368690E-04      27   37    2         0.9041621140E-03      0.1438567123E-01
          0                18           1            34   30     2       0.1451238553E-04      28   36    2         0.8237204984E-03      0.1297793913E-01
          0                19           1            31   31     2       0.1246340904E-04      27   37    2         0.7406407673E-03      0.1180340897E-01
          0                20           1            34   30     2       0.1168813532E-04      28   36    2         0.6773054339E-03      0.1066195745E-01
                                                   Max.-Head-Change                         Max.-Flux-Residual
  Residual-Control   Outer-Iter.   Inner-Iter.     Column Row Layer    Maximum-Head-Change  Column Row Layer    Maximum-Flux-Residual          L2-NORM 
          0                21           1            31   31     2       0.1038631944E-04      27   37    2         0.6068262340E-03      0.9689385433E-02
          0                22           1            34   30     2       0.9420327422E-05      28   36    2         0.5564138743E-03      0.8762903488E-02

    ------------------------------------------------
       NWT REQUIRED           22 OUTER ITERATIONS 
       AND A TOTAL OF         30 INNER ITERATIONS.
    ------------------------------------------------

 OUTPUT CONTROL FOR STRESS PERIOD    1   TIME STEP   33
    SAVE HEAD FOR ALL LAYERS
 SOLVING FOR ZETA FOR LAYER     1 ZONE     2

     865 UPPER PART EQS.       872 LOWER PART EQS.    BAND WIDTH + 1 =   44
 STRESS PERIOD=  1 TIMESTEP= 33 LAYER=  1 ZONE=  2 ACTIVE CELLS= 1737 NUMBER OF EQUATIONS=    1737
 UBUDSV SAVING "      ZETASRF  1" ON UNIT 55 AT TIME STEP 33, STRESS PERIOD    1

 HEAD WILL BE SAVED ON UNIT   51 AT END OF TIME STEP   33, STRESS PERIOD    1
 
 SOLVING FOR HEAD 
                                                   Max.-Head-Change                         Max.-Flux-Residual
  Residual-Control   Outer-Iter.   Inner-Iter.     Column Row Layer    Maximum-Head-Change  Column Row Layer    Maximum-Flux-Residual          L2-NORM 
          0                 1           6            48   31     2      -0.5876591444E-02      44   10    1         0.1979065132E+01      0.2125567020E+02
          0                 2           1            29   31     2      -0.4038495373E-03      29   31    2        -0.2070612532E-01      0.3124242264E+00
          0                 3           1            32   31     1      -0.3885624242E-03      33   32    1        -0.1605653627E-01      0.2744034189E+00
          0                 4           1            30   30     2      -0.2891453157E-03      37   31    2        -0.1414247956E-01      0.2460802568E+00
          0                 5           1            33   31     2      -0.2743938518E-03      41   31    2        -0.1209941600E-01      0.2212467266E+00
          0                 6           1            30   32     2      -0.2250713665E-03      38   30    2        -0.1097838022E-01      0.1999149138E+00
          0                 7           1            33   31     2      -0.2102965279E-03      41   31    2        -0.1015603145E-01      0.1805365498E+00
          0                 8           1            30   32     2      -0.1816140375E-03      38   30    2        -0.9028233809E-02      0.1633779704E+00
          0                 9           1            33   31     2      -0.1660364804E-03      41   31    2        -0.8442992726E-02      0.1477228641E+00
          0                10           1            30   32     2      -0.1489968185E-03      38   30    2        -0.7499127959E-02      0.1337247252E+00
                                                   Max.-Head-Change                         Max.-Flux-Residual
  Residual-Control   Outer-Iter.   Inner-Iter.     Column Row Layer    Maximum-Head-Change  Column Row Layer    Maximum-Flux-Residual          L2-NORM 
          0                11           1            33   31     2      -0.1327741835E-03      41   31    2        -0.6971311859E-02      0.1209678202E+00
          0                12           1            31   31     2      -0.1233014395E-03      38   30    2        -0.6237450055E-02      0.1095106753E+00
          0                13           1            34   30     2      -0.1068866364E-03      41   31    2        -0.5724239632E-02      0.9908873499E-01
          0                14           1            31   31     2      -0.1023897986E-03      38   30    2        -0.5178544087E-02      0.8970242787E-01
          0                15           1            34   30     2      -0.8662818308E-04      41   31    2        -0.4676858235E-02      0.8117702344E-01
          0                16           1            31   31     2      -0.8511276394E-04      38   30    2        -0.4287087825E-02      0.7348350127E-01
          0                17           1            34   30     2      -0.7030948835E-04      42   30    2        -0.3817452095E-02      0.6650396324E-01
          0                18           1            31   31     2      -0.7074934861E-04      38   30    2        -0.3538181424E-02      0.6019610055E-01
          0                19           1            34   30     2      -0.5711071748E-04      42   30    2        -0.3148033445E-02      0.5447926702E-01
          0                20           1            31   31     2      -0.5877442780E-04      38   30    2        -0.2911387230E-02      0.4930673562E-01
                                                   Max.-Head-Change                         Max.-Flux-Residual
  Residual-Control   Outer-Iter.   Inner-Iter.     Column Row Layer    Maximum-Head-Change  Column Row Layer    Maximum-Flux-Residual          L2-NORM 
          0                21           1            34   30     2      -0.4641221655E-04      42   30    2        -0.2587008388E-02      0.4462283094E-01
          0                22           1            31   31     2      -0.4878011397E-04      38   30    2        -0.2388933107E-02      0.4038118699E-01
          0                23           1            34   30     2      -0.3772959107E-04      35   33    2        -0.2127200975E-02      0.3654313528E-01
          0                24           1            31   31     2      -0.4043791764E-04      38   30    2        -0.1955170477E-02      0.3306513888E-01
          0                25           1            34   30     2      -0.3067773400E-04      35   33    2        -0.1766593682E-02      0.2992024728E-01
          0                26           1            31   31     2      -0.3347801938E-04      38   30    2        -0.1596370502E-02      0.2706890684E-01
          0                27           1            34   30     2      -0.2494776030E-04      35   33    2        -0.1463379494E-02      0.2449230575E-01
          0                28           1            31   31     2      -0.2767635536E-04      38   30    2        -0.1300586183E-02      0.2215528304E-01
          0                29           1            34   30     2      -0.2029066936E-04      35   29    2        -0.1211184920E-02      0.2004470646E-01
          0                30           1            31   31     2      -0.2284568353E-04      38   30    2        -0.1057510848E-02      0.1812980090E-01
                                                   Max.-Head-Change                         Max.-Flux-Residual
  Residual-Control   Outer-Iter.   Inner-Iter.     Column Row Layer    Maximum-Head-Change  Column Row Layer    Maximum-Flux-Residual          L2-NORM 
          0                31           1            34   30     2      -0.1650509402E-04      35   29    2        -0.1002637108E-02      0.1640140445E-01
          0                32           1            31   31     2      -0.1882894025E-04      38   30    2        -0.8583239347E-03      0.1483289646E-01
          0                33           1            35   31     2      -0.1343043440E-04      35   29    2        -0.8284276803E-03      0.1341788782E-01
          0                34           1            31   31     2      -0.1549407199E-04      38   30    2        -0.6955303346E-03      0.1213356854E-01
          0                35           1            35   29     2      -0.1095537335E-04      35   29    2        -0.6831912026E-03      0.1097547960E-01
          0                36           1            31   31     2      -0.1272990330E-04      39   29    2        -0.5629536247E-03      0.9924231108E-02
          0                37           1            35   29     2      -0.8954497277E-05      35   29    2        -0.5623621507E-03      0.8976700618E-02

    ------------------------------------------------
       NWT REQUIRED           37 OUTER ITERATIONS 
       AND A TOTAL OF         42 INNER ITERATIONS.
    ------------------------------------------------

 OUTPUT CONTROL FOR STRESS PERIOD    1   TIME STEP   34
    SAVE HEAD FOR ALL LAYERS
 SOLVING FOR ZETA FOR LAYER     1 ZONE     2

     921 UPPER PART EQS.       924 LOWER PART EQS.    BAND WIDTH + 1 =   44
 STRESS PERIOD=  1 TIMESTEP= 34 LAYER=  1 ZONE=  2 ACTIVE CELLS= 1845 NUMBER OF EQUATIONS=    1845
 UBUDSV SAVING "      ZETASRF  1" ON UNIT 55 AT TIME STEP 34, STRESS PERIOD    1

 HEAD WILL BE SAVED ON UNIT   51 AT END OF TIME STEP   34, STRESS PERIOD    1
 
 SOLVING FOR HEAD 
                                                   Max.-Head-Change                         Max.-Flux-Residual
  Residual-Control   Outer-Iter.   Inner-Iter.     Column Row Layer    Maximum-Head-Change  Column Row Layer    Maximum-Flux-Residual          L2-NORM 
          0                 1           9            50   31     1       0.1110197053E-01      31   52    1        -0.3001635472E+01      0.3743617604E+02
          0                 2           1            14   39     1       0.9551575300E-04      48   41    1         0.9843553029E-02      0.1288741608E+00
          0                 3           1            39   45     2       0.7642505495E-04      39   45    2         0.5292378579E-02      0.8114270313E-01
          0                 4           1            40   43     1       0.5189014081E-04      48   41    1         0.3844385482E-02      0.6289091763E-01
          0                 5           1            39   41     2       0.4979766068E-04      39   41    2         0.3249203236E-02      0.5227382100E-01
          0                 6           1            35   41     2       0.3757416619E-04      42   38    2         0.2537411023E-02      0.4543343832E-01
          0                 7           1            39   41     2       0.3637389934E-04      39   41    2         0.2402757041E-02      0.4022860634E-01
          0                 8           1            35   33     2       0.3541649833E-04      36   36    2         0.2074017556E-02      0.3615825186E-01
          0                 9           1            31   31     2       0.3056783883E-04      39   41    2         0.1911689643E-02      0.3264117898E-01
          0                10           1            34   30     2       0.3268692749E-04      28   32    2         0.1836289436E-02      0.2947483249E-01
                                                   Max.-Head-Change                         Max.-Flux-Residual
  Residual-Control   Outer-Iter.   Inner-Iter.     Column Row Layer    Maximum-Head-Change  Column Row Layer    Maximum-Flux-Residual          L2-NORM 
          0                11           1            31   31     2       0.2606976542E-04      28   32    2         0.1620326015E-02      0.2676041096E-01
          0                12           1            34   30     2       0.2814027937E-04      28   32    2         0.1574821071E-02      0.2413610635E-01
          0                13           1            31   31     2       0.2185266538E-04      28   32    2         0.1364705608E-02      0.2195186358E-01
          0                14           1            34   30     2       0.2329360043E-04      28   32    2         0.1316875253E-02      0.1978470046E-01
          0                15           1            31   31     2       0.1823988248E-04      28   32    2         0.1130608930E-02      0.1800176049E-01
          0                16           1            34   30     2       0.1894809975E-04      28   32    2         0.1089670270E-02      0.1622869111E-01
          0                17           1            31   31     2       0.1520426945E-04      28   32    2         0.9309659127E-03      0.1476483981E-01
          0                18           1            34   30     2       0.1530943326E-04      28   32    2         0.8977319635E-03      0.1332087340E-01
          0                19           1            31   31     2       0.1266212341E-04      28   32    2         0.7651480531E-03      0.1211563328E-01
          0                20           1            34   30     2       0.1234772111E-04      28   32    2         0.7382148265E-03      0.1094088778E-01
                                                   Max.-Head-Change                         Max.-Flux-Residual
  Residual-Control   Outer-Iter.   Inner-Iter.     Column Row Layer    Maximum-Head-Change  Column Row Layer    Maximum-Flux-Residual          L2-NORM 
          0                21           1            31   31     2       0.1053362288E-04      28   32    2         0.6287457863E-03      0.9947093116E-02
          0                22           1            34   30     2       0.9963345741E-05      28   32    2         0.6064935126E-03      0.8990701402E-02

    ------------------------------------------------
       NWT REQUIRED           22 OUTER ITERATIONS 
       AND A TOTAL OF         30 INNER ITERATIONS.
    ------------------------------------------------

 OUTPUT CONTROL FOR STRESS PERIOD    1   TIME STEP   35
    SAVE HEAD FOR ALL LAYERS
 SOLVING FOR ZETA FOR LAYER     1 ZONE     2

     873 UPPER PART EQS.       880 LOWER PART EQS.    BAND WIDTH + 1 =   44
 STRESS PERIOD=  1 TIMESTEP= 35 LAYER=  1 ZONE=  2 ACTIVE CELLS= 1753 NUMBER OF EQUATIONS=    1753
 UBUDSV SAVING "      ZETASRF  1" ON UNIT 55 AT TIME STEP 35, STRESS PERIOD    1

 HEAD WILL BE SAVED ON UNIT   51 AT END OF TIME STEP   35, STRESS PERIOD    1
 
 SOLVING FOR HEAD 
                                                   Max.-Head-Change                         Max.-Flux-Residual
  Residual-Control   Outer-Iter.   Inner-Iter.     Column Row Layer    Maximum-Head-Change  Column Row Layer    Maximum-Flux-Residual          L2-NORM 
          0                 1           4            49   31     2      -0.5497693376E-02      42   52    1         0.2276002777E+01      0.2344290904E+02
          0                 2           1            36   36     2      -0.5795499518E-03      36   36    2        -0.2898409446E-01      0.4890645031E+00
          0                 3           1            31   30     1      -0.4887753226E-03      40   25    1        -0.2313576794E-01      0.4224567359E+00
          0                 4           1            30   30     2      -0.5065662819E-03      36   32    2        -0.1990103497E-01      0.3800938806E+00
          0                 5           1            31   30     1      -0.3303296757E-03      33   32    1        -0.1716653839E-01      0.3418628813E+00
          0                 6           1            30   30     2      -0.4304319392E-03      37   31    2        -0.1559329191E-01      0.3080564938E+00
          0                 7           1            32   32     2      -0.2469517251E-03      41   31    2        -0.1499393601E-01      0.2776326097E+00
          0                 8           1            30   31     1      -0.3578192280E-03      37   31    2        -0.1258151447E-01      0.2494002909E+00
          0                 9           1            33   31     2      -0.1965880874E-03      41   31    2        -0.1292624066E-01      0.2248036110E+00
          0                10           1            30   31     1      -0.2919258208E-03      37   31    2        -0.1023887809E-01      0.2016359173E+00
                                                   Max.-Head-Change                         Max.-Flux-Residual
  Residual-Control   Outer-Iter.   Inner-Iter.     Column Row Layer    Maximum-Head-Change  Column Row Layer    Maximum-Flux-Residual          L2-NORM 
          0                11           1            33   31     2      -0.1587089982E-03      41   31    2        -0.1086721878E-01      0.1817779132E+00
          0                12           1            30   31     1      -0.2354490416E-03      38   30    2        -0.8412658127E-02      0.1629833003E+00
          0                13           1            33   31     2      -0.1287406548E-03      41   31    2        -0.8997019718E-02      0.1469736037E+00
          0                14           1            30   32     2      -0.1894071166E-03      38   30    2        -0.6959882442E-02      0.1318082870E+00
          0                15           1            33   31     2      -0.1046925182E-03      41   31    2        -0.7370897913E-02      0.1189022014E+00
          0                16           1            30   32     2      -0.1522536249E-03      38   30    2        -0.5750789368E-02      0.1066872453E+00
          0                17           1            34   32     2      -0.8528348977E-04      41   31    2        -0.5992002224E-02      0.9627384751E-01
          0                18           1            31   31     2      -0.1224821362E-03      38   30    2        -0.4744378708E-02      0.8643659926E-01
          0                19           1            34   30     2      -0.6983379274E-04      41   31    2        -0.4841719379E-02      0.7802642346E-01
          0                20           1            31   31     2      -0.9861892256E-04      38   30    2        -0.3907398181E-02      0.7009910140E-01
                                                   Max.-Head-Change                         Max.-Flux-Residual
  Residual-Control   Outer-Iter.   Inner-Iter.     Column Row Layer    Maximum-Head-Change  Column Row Layer    Maximum-Flux-Residual          L2-NORM 
          0                21           1            34   30     2      -0.5727319150E-04      41   31    2        -0.3893467788E-02      0.6329879875E-01
          0                22           1            31   31     2      -0.7948509765E-04      38   30    2        -0.3212446152E-02      0.5690432531E-01
          0                23           1            34   30     2      -0.4698460073E-04      42   30    2        -0.3168345025E-02      0.5139997226E-01
          0                24           1            31   31     2      -0.6412962747E-04      38   30    2        -0.2636533852E-02      0.4623559174E-01
          0                25           1            34   30     2      -0.3855478763E-04      42   30    2        -0.2573949247E-02      0.4177492912E-01
          0                26           1            31   31     2      -0.5177809463E-04      38   30    2        -0.2160440608E-02      0.3759946703E-01
          0                27           1            34   30     2      -0.3164375051E-04      42   30    2        -0.2085593867E-02      0.3398152626E-01
          0                28           1            31   31     2      -0.4183380510E-04      38   30    2        -0.1767659572E-02      0.3060188527E-01
          0                29           1            34   30     2      -0.2597952401E-04      42   30    2        -0.1686107579E-02      0.2766468751E-01
          0                30           1            31   31     2      -0.3381217446E-04      38   30    2        -0.1444373182E-02      0.2492648170E-01
                                                   Max.-Head-Change                         Max.-Flux-Residual
  Residual-Control   Outer-Iter.   Inner-Iter.     Column Row Layer    Maximum-Head-Change  Column Row Layer    Maximum-Flux-Residual          L2-NORM 
          0                31           1            34   30     2      -0.2133553025E-04      35   33    2        -0.1377286255E-02      0.2254023435E-01
          0                32           1            31   31     2      -0.2733946372E-04      38   30    2        -0.1178757496E-02      0.2031958280E-01
          0                33           1            34   30     2      -0.1752913059E-04      35   33    2        -0.1131133189E-02      0.1837927543E-01
          0                34           1            31   31     2      -0.2210875266E-04      38   30    2        -0.9609711183E-03      0.1657675039E-01
          0                35           1            34   30     2      -0.1440783888E-04      35   33    2        -0.9271402726E-03      0.1499799048E-01
          0                36           1            31   31     2      -0.1788269104E-04      38   30    2        -0.7826481399E-03      0.1353358699E-01
          0                37           1            34   30     2      -0.1184822181E-04      35   33    2        -0.7585425776E-03      0.1224798410E-01
          0                38           1            31   31     2      -0.1446607006E-04      38   30    2        -0.6368659635E-03      0.1105724120E-01
          0                39           1            35   33     2      -0.9749077996E-05      35   33    2        -0.6195541972E-03      0.1000954870E-01

    ------------------------------------------------
       NWT REQUIRED           39 OUTER ITERATIONS 
       AND A TOTAL OF         42 INNER ITERATIONS.
    ------------------------------------------------

 OUTPUT CONTROL FOR STRESS PERIOD    1   TIME STEP   36
    SAVE HEAD FOR ALL LAYERS
 SOLVING FOR ZETA FOR LAYER     1 ZONE     2

     921 UPPER PART EQS.       924 LOWER PART EQS.    BAND WIDTH + 1 =   44
 STRESS PERIOD=  1 TIMESTEP= 36 LAYER=  1 ZONE=  2 ACTIVE CELLS= 1845 NUMBER OF EQUATIONS=    1845
 UBUDSV SAVING "      ZETASRF  1" ON UNIT 55 AT TIME STEP 36, STRESS PERIOD    1

 HEAD WILL BE SAVED ON UNIT   51 AT END OF TIME STEP   36, STRESS PERIOD    1
 
 SOLVING FOR HEAD 
                                                   Max.-Head-Change                         Max.-Flux-Residual
  Residual-Control   Outer-Iter.   Inner-Iter.     Column Row Layer    Maximum-Head-Change  Column Row Layer    Maximum-Flux-Residual          L2-NORM 
          0                 1           6            31   12     1       0.1022629856E-01      31   10    1        -0.3291094820E+01      0.3366673608E+02
          0                 2           1            30   31     1       0.4407145649E-03      30   31    1         0.2145728775E-01      0.3331561216E+00
          0                 3           1            32   32     2       0.4273027069E-03      33   31    2         0.1828127640E-01      0.2939665340E+00
          0                 4           1            30   31     1       0.2998822594E-03      45   31    2         0.1513191419E-01      0.2629784481E+00
          0                 5           1            32   32     2       0.3118335732E-03      41   31    2         0.1369901847E-01      0.2368038341E+00
          0                 6           1            30   31     1       0.2268544353E-03      45   31    2         0.1271779535E-01      0.2136247171E+00
          0                 7           1            33   31     2       0.2417163501E-03      42   34    2         0.1141553403E-01      0.1929819808E+00
          0                 8           1            30   32     2       0.1806836322E-03      45   31    2         0.1035340853E-01      0.1744597317E+00
          0                 9           1            33   31     2       0.1925690313E-03      42   34    2         0.9532285423E-02      0.1577357190E+00
          0                10           1            30   32     2       0.1471174761E-03      38   34    2         0.8661004718E-02      0.1427007298E+00
                                                   Max.-Head-Change                         Max.-Flux-Residual
  Residual-Control   Outer-Iter.   Inner-Iter.     Column Row Layer    Maximum-Head-Change  Column Row Layer    Maximum-Flux-Residual          L2-NORM 
          0                11           1            33   31     2       0.1551884608E-03      42   34    2         0.7912206689E-02      0.1290716977E+00
          0                12           1            30   32     2       0.1209471897E-03      38   34    2         0.7224656393E-02      0.1168116336E+00
          0                13           1            33   31     2       0.1256666175E-03      42   34    2         0.6533203322E-02      0.1056858558E+00
          0                14           1            30   32     2       0.9987188806E-04      38   34    2         0.5999790595E-02      0.9567180841E-01
          0                15           1            34   32     2       0.1020715445E-03      42   34    2         0.5369356589E-02      0.8658035114E-01
          0                16           1            30   32     2       0.8263312221E-04      38   34    2         0.4960520161E-02      0.7839289540E-01
          0                17           1            34   32     2       0.8317039821E-04      42   34    2         0.4394257630E-02      0.7095786532E-01
          0                18           1            30   32     2       0.6842350210E-04      38   34    2         0.4084098339E-02      0.6425896174E-01
          0                19           1            34   32     2       0.6779032940E-04      42   34    2         0.3582419089E-02      0.5817444863E-01
          0                20           1            31   33     2       0.5671733245E-04      38   34    2         0.3349530853E-02      0.5269015688E-01
                                                   Max.-Head-Change                         Max.-Flux-Residual
  Residual-Control   Outer-Iter.   Inner-Iter.     Column Row Layer    Maximum-Head-Change  Column Row Layer    Maximum-Flux-Residual          L2-NORM 
          0                21           1            34   30     2       0.5531695415E-04      42   34    2         0.2910176397E-02      0.4770800544E-01
          0                22           1            31   33     2       0.4708611387E-04      38   34    2         0.2737395517E-02      0.4321577034E-01
          0                23           1            34   30     2       0.4518954450E-04      35   33    2         0.2381920392E-02      0.3913428511E-01
          0                24           1            31   33     2       0.3907656545E-04      39   33    2         0.2244588954E-02      0.3545299648E-01
          0                25           1            34   30     2       0.3691558168E-04      35   33    2         0.1985482516E-02      0.3210801127E-01
          0                26           1            31   33     2       0.3241163389E-04      39   33    2         0.1851581880E-02      0.2909014293E-01
          0                27           1            34   30     2       0.3015332957E-04      35   33    2         0.1651323257E-02      0.2634782211E-01
          0                28           1            31   33     2       0.2686426893E-04      39   33    2         0.1523477128E-02      0.2387302099E-01
          0                29           1            35   33     2       0.2464955882E-04      35   33    2         0.1370216933E-02      0.2162416373E-01
          0                30           1            31   33     2       0.2224779376E-04      39   33    2         0.1250531237E-02      0.1959415281E-01
                                                   Max.-Head-Change                         Max.-Flux-Residual
  Residual-Control   Outer-Iter.   Inner-Iter.     Column Row Layer    Maximum-Head-Change  Column Row Layer    Maximum-Flux-Residual          L2-NORM 
          0                31           1            35   33     2       0.2017593926E-04      35   33    2         0.1134276695E-02      0.1774954185E-01
          0                32           1            31   33     2       0.1840763986E-04      39   33    2         0.1024211982E-02      0.1608400648E-01
          0                33           1            35   33     2       0.1650928404E-04      35   33    2         0.9367303031E-03      0.1457069503E-01
          0                34           1            31   33     2       0.1521530450E-04      39   33    2         0.8371215308E-03      0.1320394401E-01
          0                35           1            35   33     2       0.1350459395E-04      35   33    2         0.7717572395E-03      0.1196224198E-01
          0                36           1            31   33     2       0.1256365802E-04      39   33    2         0.6828963923E-03      0.1084050629E-01
          0                37           1            35   33     2       0.1104303464E-04      35   33    2         0.6343554174E-03      0.9821539670E-02
          0                38           1            31   33     2       0.1036321433E-04      39   33    2         0.5560992694E-03      0.8900781858E-02
          0                39           1            35   33     2       0.9027123180E-05      35   33    2         0.5202302106E-03      0.8064511562E-02

    ------------------------------------------------
       NWT REQUIRED           39 OUTER ITERATIONS 
       AND A TOTAL OF         44 INNER ITERATIONS.
    ------------------------------------------------

 OUTPUT CONTROL FOR STRESS PERIOD    1   TIME STEP   37
    SAVE HEAD FOR ALL LAYERS
 SOLVING FOR ZETA FOR LAYER     1 ZONE     2

     889 UPPER PART EQS.       896 LOWER PART EQS.    BAND WIDTH + 1 =   44
 STRESS PERIOD=  1 TIMESTEP= 37 LAYER=  1 ZONE=  2 ACTIVE CELLS= 1785 NUMBER OF EQUATIONS=    1785
 UBUDSV SAVING "      ZETASRF  1" ON UNIT 55 AT TIME STEP 37, STRESS PERIOD    1

 HEAD WILL BE SAVED ON UNIT   51 AT END OF TIME STEP   37, STRESS PERIOD    1
 
 SOLVING FOR HEAD 
                                                   Max.-Head-Change                         Max.-Flux-Residual
  Residual-Control   Outer-Iter.   Inner-Iter.     Column Row Layer    Maximum-Head-Change  Column Row Layer    Maximum-Flux-Residual          L2-NORM 
          0                 1           4            31   12     1      -0.5242775289E-02      38   10    1         0.2630257976E+01      0.2277481078E+02
          0                 2           1            36   36     2      -0.4400365235E-03      37   39    2        -0.2084746993E-01      0.3762575769E+00
          0                 3           1            31   30     1      -0.3258831175E-03      47   38    1        -0.1710899822E-01      0.3270701720E+00
          0                 4           1            33   31     2      -0.3961790653E-03      36   32    2        -0.1444862802E-01      0.2936852030E+00
          0                 5           1            31   30     1      -0.2287842829E-03      47   38    1        -0.1536714205E-01      0.2634177066E+00
          0                 6           1            30   30     2      -0.3509934299E-03      37   31    2        -0.1156523542E-01      0.2364602509E+00
          0                 7           1            32   31     1      -0.1744547420E-03      47   38    1        -0.1284882077E-01      0.2124494855E+00
          0                 8           1            30   31     1      -0.2954659741E-03      37   31    2        -0.9390681301E-02      0.1898927346E+00
          0                 9           1            32   32     2      -0.1391000105E-03      41   35    2        -0.1063489551E-01      0.1705889621E+00
          0                10           1            30   31     1      -0.2405882850E-03      38   34    2        -0.7696330269E-02      0.1521362591E+00
                                                   Max.-Head-Change                         Max.-Flux-Residual
  Residual-Control   Outer-Iter.   Inner-Iter.     Column Row Layer    Maximum-Head-Change  Column Row Layer    Maximum-Flux-Residual          L2-NORM 
          0                11           1            33   31     2      -0.1115522265E-03      41   35    2        -0.8921388911E-02      0.1366957382E+00
          0                12           1            30   31     1      -0.1925755706E-03      38   34    2        -0.6362482987E-02      0.1218357454E+00
          0                13           1            33   31     2      -0.8994391211E-04      42   34    2        -0.7369442884E-02      0.1095253966E+00
          0                14           1            30   32     2      -0.1533349093E-03      38   34    2        -0.5248597352E-02      0.9764282291E-01
          0                15           1            33   31     2      -0.7270751491E-04      42   34    2        -0.6129690055E-02      0.8782997097E-01
          0                16           1            30   32     2      -0.1220549748E-03      38   34    2        -0.4319339764E-02      0.7835000690E-01
          0                17           1            33   31     2      -0.5888380532E-04      42   34    2        -0.5046729652E-02      0.7051855872E-01
          0                18           1            30   32     2      -0.9723689637E-04      38   34    2        -0.3545665981E-02      0.6295507244E-01
          0                19           1            34   34     2      -0.4790532477E-04      42   34    2        -0.4122546748E-02      0.5669536202E-01
          0                20           1            30   32     2      -0.7763502107E-04      38   34    2        -0.2902568430E-02      0.5065327770E-01
                                                   Max.-Head-Change                         Max.-Flux-Residual
  Residual-Control   Outer-Iter.   Inner-Iter.     Column Row Layer    Maximum-Head-Change  Column Row Layer    Maximum-Flux-Residual          L2-NORM 
          0                21           1            34   34     2      -0.3899513270E-04      42   34    2        -0.3346601810E-02      0.4563952154E-01
          0                22           1            30   32     2      -0.6214395493E-04      38   34    2        -0.2369294896E-02      0.4080412137E-01
          0                23           1            34   34     2      -0.3171507945E-04      42   34    2        -0.2702764814E-02      0.3678074455E-01
          0                24           1            30   32     2      -0.4987325843E-04      38   34    2        -0.1928310860E-02      0.3290330024E-01
          0                25           1            34   34     2      -0.2576800213E-04      42   34    2        -0.2173232133E-02      0.2966854401E-01
          0                26           1            30   32     2      -0.4010970330E-04      38   34    2        -0.1564958790E-02      0.2655364767E-01
          0                27           1            34   34     2      -0.2091123537E-04      42   34    2        -0.1740658689E-02      0.2394938042E-01
          0                28           1            31   33     2      -0.3236181321E-04      38   34    2        -0.1266543084E-02      0.2144317039E-01
          0                29           1            34   34     2      -0.1694849624E-04      42   34    2        -0.1389232844E-02      0.1934402772E-01
          0                30           1            31   33     2      -0.2615552402E-04      38   34    2        -0.1022293072E-02      0.1732482628E-01
                                                   Max.-Head-Change                         Max.-Flux-Residual
  Residual-Control   Outer-Iter.   Inner-Iter.     Column Row Layer    Maximum-Head-Change  Column Row Layer    Maximum-Flux-Residual          L2-NORM 
          0                31           1            34   34     2      -0.1371892425E-04      42   34    2        -0.1105129435E-02      0.1563123287E-01
          0                32           1            31   33     2      -0.2116529734E-04      38   34    2        -0.8230614569E-03      0.1400252162E-01
          0                33           1            35   33     2      -0.1113487648E-04      42   34    2        -0.8764110194E-03      0.1263493119E-01
          0                34           1            31   33     2      -0.1713797767E-04      38   34    2        -0.6611427619E-03      0.1132014914E-01
          0                35           1            35   33     2      -0.9045574783E-05      42   34    2        -0.6929637092E-03      0.1021530773E-01

    ------------------------------------------------
       NWT REQUIRED           35 OUTER ITERATIONS 
       AND A TOTAL OF         38 INNER ITERATIONS.
    ------------------------------------------------

 OUTPUT CONTROL FOR STRESS PERIOD    1   TIME STEP   38
    SAVE HEAD FOR ALL LAYERS
 SOLVING FOR ZETA FOR LAYER     1 ZONE     2

     921 UPPER PART EQS.       924 LOWER PART EQS.    BAND WIDTH + 1 =   44
 STRESS PERIOD=  1 TIMESTEP= 38 LAYER=  1 ZONE=  2 ACTIVE CELLS= 1845 NUMBER OF EQUATIONS=    1845
 UBUDSV SAVING "      ZETASRF  1" ON UNIT 55 AT TIME STEP 38, STRESS PERIOD    1

 HEAD WILL BE SAVED ON UNIT   51 AT END OF TIME STEP   38, STRESS PERIOD    1
 
 SOLVING FOR HEAD 
                                                   Max.-Head-Change                         Max.-Flux-Residual
  Residual-Control   Outer-Iter.   Inner-Iter.     Column Row Layer    Maximum-Head-Change  Column Row Layer    Maximum-Flux-Residual          L2-NORM 
          0                 1           2            31   11     1      -0.1855472891E-02      51   38    1        -0.9331307176E+00      0.9892656141E+01
          0                 2           1            43   43     2       0.1604109819E-03      44   44    2         0.9730294760E-02      0.1635896484E+00
          0                 3           1            21   20     1       0.8939547323E-04      45   40    1         0.5481666157E-02      0.1106730632E+00
          0                 4           1            21   21     2       0.8572146602E-04      48   37    1         0.4756942737E-02      0.9217147196E-01
          0                 5           1            29   22     1       0.6319642042E-04      45   36    1         0.3624030654E-02      0.8060417163E-01
          0                 6           1            31   26     1       0.7308228103E-04      48   29    1         0.3556129002E-02      0.7181473711E-01
          0                 7           1            31   29     2       0.5753010174E-04      45   32    1         0.3117872050E-02      0.6442724068E-01
          0                 8           1            31   30     1       0.6707851996E-04      48   29    1         0.2807105256E-02      0.5803311434E-01
          0                 9           1            31   29     2       0.4874205981E-04      45   32    1         0.2706575325E-02      0.5229874455E-01
          0                10           1            30   30     2       0.5840831473E-04      35   29    2         0.2227626939E-02      0.4720827540E-01
                                                   Max.-Head-Change                         Max.-Flux-Residual
  Residual-Control   Outer-Iter.   Inner-Iter.     Column Row Layer    Maximum-Head-Change  Column Row Layer    Maximum-Flux-Residual          L2-NORM 
          0                11           1            31   31     2       0.3976534341E-04      45   32    1         0.2334299943E-02      0.4256605774E-01
          0                12           1            30   30     2       0.4952467783E-04      36   32    2         0.1866105597E-02      0.3842878067E-01
          0                13           1            31   31     2       0.3206949537E-04      45   32    1         0.1991180592E-02      0.3464416376E-01
          0                14           1            30   30     2       0.4147997702E-04      36   32    2         0.1554948855E-02      0.3126434142E-01
          0                15           1            31   31     2       0.2574382301E-04      45   32    1         0.1678838978E-02      0.2817460729E-01
          0                16           1            30   30     2       0.3447872126E-04      36   32    2         0.1285013323E-02      0.2541107645E-01
          0                17           1            32   32     2       0.2071745385E-04      45   32    1         0.1399554818E-02      0.2288984017E-01
          0                18           1            30   30     2       0.2849627749E-04      36   32    2         0.1055990897E-02      0.2063218475E-01
          0                19           1            32   32     2       0.1668321887E-04      45   32    1         0.1154421624E-02      0.1857759893E-01
          0                20           1            30   30     2       0.2345135734E-04      36   32    2         0.8640232742E-03      0.1673591485E-01
                                                   Max.-Head-Change                         Max.-Flux-Residual
  Residual-Control   Outer-Iter.   Inner-Iter.     Column Row Layer    Maximum-Head-Change  Column Row Layer    Maximum-Flux-Residual          L2-NORM 
          0                21           1            32   32     2       0.1344381718E-04      45   32    1         0.9430495246E-03      0.1506391481E-01
          0                22           1            30   30     2       0.1923538798E-04      37   31    2         0.7103648032E-03      0.1356400146E-01
          0                23           1            33   31     2       0.1084547846E-04      45   32    1         0.7636697808E-03      0.1220513359E-01
          0                24           1            30   30     2       0.1573677615E-04      37   31    2         0.5825904507E-03      0.1098543903E-01
          0                25           1            33   31     2       0.8777260398E-05      45   32    1         0.6135517742E-03      0.9882328708E-02

    ------------------------------------------------
       NWT REQUIRED           25 OUTER ITERATIONS 
       AND A TOTAL OF         26 INNER ITERATIONS.
    ------------------------------------------------

 OUTPUT CONTROL FOR STRESS PERIOD    1   TIME STEP   39
    SAVE HEAD FOR ALL LAYERS
 SOLVING FOR ZETA FOR LAYER     1 ZONE     2
 STRESS PERIOD=  1 TIMESTEP= 39 LAYER=  1 ZONE=  2 ACTIVE CELLS= 1845 NUMBER OF EQUATIONS=    1845
 UBUDSV SAVING "      ZETASRF  1" ON UNIT 55 AT TIME STEP 39, STRESS PERIOD    1

 HEAD WILL BE SAVED ON UNIT   51 AT END OF TIME STEP   39, STRESS PERIOD    1
 
 SOLVING FOR HEAD 
                                                   Max.-Head-Change                         Max.-Flux-Residual
  Residual-Control   Outer-Iter.   Inner-Iter.     Column Row Layer    Maximum-Head-Change  Column Row Layer    Maximum-Flux-Residual          L2-NORM 
          0                 1           2            45   45     1       0.1798861215E-02      38   11    1        -0.7746444358E+00      0.8525785054E+01
          0                 2           1            43   43     2       0.1733211796E-03      44   44    2         0.9803453129E-02      0.1704294137E+00
          0                 3           1            21   20     1       0.9747457803E-04      45   40    1         0.5759042064E-02      0.1214309554E+00
          0                 4           1            22   22     2       0.9529825502E-04      48   37    1         0.5141235348E-02      0.1033652809E+00
          0                 5           1            30   25     1       0.7355326528E-04      45   32    1         0.4070082940E-02      0.9123410004E-01
          0                 6           1            30   27     1       0.8573885710E-04      48   29    1         0.3969875313E-02      0.8156597384E-01
          0                 7           1            31   29     2       0.6673814413E-04      45   32    1         0.3521447887E-02      0.7330941174E-01
          0                 8           1            31   30     1       0.7749197071E-04      48   29    1         0.3159977626E-02      0.6607199917E-01
          0                 9           1            30   30     2       0.5598714621E-04      45   32    1         0.3057863085E-02      0.5956526384E-01
          0                10           1            30   30     2       0.6679213019E-04      35   29    2         0.2548430777E-02      0.5377282243E-01
                                                   Max.-Head-Change                         Max.-Flux-Residual
  Residual-Control   Outer-Iter.   Inner-Iter.     Column Row Layer    Maximum-Head-Change  Column Row Layer    Maximum-Flux-Residual          L2-NORM 
          0                11           1            31   31     2       0.4550089414E-04      45   32    1         0.2637962411E-02      0.4849206850E-01
          0                12           1            30   30     2       0.5646918485E-04      36   32    2         0.2129461962E-02      0.4378015142E-01
          0                13           1            31   31     2       0.3661075701E-04      45   32    1         0.2251954610E-02      0.3947072070E-01
          0                14           1            30   30     2       0.4727689836E-04      36   32    2         0.1772099263E-02      0.3562093055E-01
          0                15           1            32   32     2       0.2934467660E-04      45   32    1         0.1900739007E-02      0.3210059687E-01
          0                16           1            30   30     2       0.3932587635E-04      36   32    2         0.1463562110E-02      0.2895231974E-01
          0                17           1            32   32     2       0.2357964075E-04      45   32    1         0.1586392960E-02      0.2607830120E-01
          0                18           1            30   30     2       0.3255049837E-04      36   32    2         0.1202200691E-02      0.2350549550E-01
          0                19           1            32   32     2       0.1895721197E-04      45   32    1         0.1310028762E-02      0.2116190347E-01
          0                20           1            30   30     2       0.2683435018E-04      36   32    2         0.9831988184E-03      0.1906229200E-01
                                                   Max.-Head-Change                         Max.-Flux-Residual
  Residual-Control   Outer-Iter.   Inner-Iter.     Column Row Layer    Maximum-Head-Change  Column Row Layer    Maximum-Flux-Residual          L2-NORM 
          0                21           1            32   32     2       0.1524914730E-04      45   32    1         0.1071205294E-02      0.1715387643E-01
          0                22           1            30   30     2       0.2204965715E-04      37   31    2         0.8076629452E-03      0.1544321644E-01
          0                23           1            33   31     2       0.1227533624E-04      45   32    1         0.8680531105E-03      0.1389131977E-01
          0                24           1            30   30     2       0.1807026710E-04      37   31    2         0.6618693862E-03      0.1249979272E-01
          0                25           1            33   31     2       0.9913300997E-05      45   32    1         0.6976552523E-03      0.1123942492E-01

    ------------------------------------------------
       NWT REQUIRED           25 OUTER ITERATIONS 
       AND A TOTAL OF         26 INNER ITERATIONS.
    ------------------------------------------------

 OUTPUT CONTROL FOR STRESS PERIOD    1   TIME STEP   40
    SAVE HEAD FOR ALL LAYERS
 SOLVING FOR ZETA FOR LAYER     1 ZONE     2
 STRESS PERIOD=  1 TIMESTEP= 40 LAYER=  1 ZONE=  2 ACTIVE CELLS= 1845 NUMBER OF EQUATIONS=    1845
 UBUDSV SAVING "      ZETASRF  1" ON UNIT 55 AT TIME STEP 40, STRESS PERIOD    1

 HEAD WILL BE SAVED ON UNIT   51 AT END OF TIME STEP   40, STRESS PERIOD    1
 
 SOLVING FOR HEAD 
                                                   Max.-Head-Change                         Max.-Flux-Residual
  Residual-Control   Outer-Iter.   Inner-Iter.     Column Row Layer    Maximum-Head-Change  Column Row Layer    Maximum-Flux-Residual          L2-NORM 
          0                 1           3            51   31     1       0.7942285782E-02      52   29    1        -0.3434420900E+01      0.2448101054E+02
          0                 2           1            24   20     2       0.3131805349E-03      38   42    2         0.1950467554E-01      0.3938781640E+00
          0                 3           1            26   23     1       0.3116029507E-03      50   31    1         0.1972430438E-01      0.3349680675E+00
          0                 4           1            40   32     2       0.2479244899E-03      46   31    1         0.1594678286E-01      0.2952740807E+00
          0                 5           1            31   30     1       0.2568181052E-03      50   31    1         0.1563155366E-01      0.2645425782E+00
          0                 6           1            32   32     2       0.2328156533E-03      46   31    1         0.1338842872E-01      0.2378871086E+00
          0                 7           1            30   31     1       0.2210668043E-03      50   31    1         0.1260999463E-01      0.2151132685E+00
          0                 8           1            31   31     2       0.2023292804E-03      46   31    1         0.1125978018E-01      0.1942482340E+00
          0                 9           1            30   31     1       0.1848928875E-03      50   31    1         0.1008007653E-01      0.1760118101E+00
          0                10           1            31   31     2       0.1692900736E-03      46   31    1         0.9425631603E-02      0.1591654800E+00
                                                   Max.-Head-Change                         Max.-Flux-Residual
  Residual-Control   Outer-Iter.   Inner-Iter.     Column Row Layer    Maximum-Head-Change  Column Row Layer    Maximum-Flux-Residual          L2-NORM 
          0                11           1            30   30     2       0.1535118335E-03      50   31    1         0.7983909766E-02      0.1442856302E+00
          0                12           1            32   32     2       0.1395394158E-03      46   31    1         0.7843692407E-02      0.1305809127E+00
          0                13           1            30   30     2       0.1270211513E-03      44   33    1         0.6451218393E-02      0.1183792366E+00
          0                14           1            32   32     2       0.1143320282E-03      46   31    1         0.6489499777E-02      0.1071977524E+00
          0                15           1            30   30     2       0.1049335399E-03      44   33    1         0.5424730119E-02      0.9717755491E-01
          0                16           1            32   32     2       0.9348019927E-04      46   31    1         0.5340436544E-02      0.8803843286E-01
          0                17           1            30   30     2       0.8662403783E-04      44   33    1         0.4544520913E-02      0.7980567466E-01
          0                18           1            32   32     2       0.7639257462E-04      46   31    1         0.4373865060E-02      0.7232577008E-01
          0                19           1            30   30     2       0.7148292019E-04      44   33    1         0.3795267477E-02      0.6556029578E-01
          0                20           1            33   31     2       0.6251294419E-04      46   31    1         0.3567286982E-02      0.5943185140E-01
                                                   Max.-Head-Change                         Max.-Flux-Residual
  Residual-Control   Outer-Iter.   Inner-Iter.     Column Row Layer    Maximum-Head-Change  Column Row Layer    Maximum-Flux-Residual          L2-NORM 
          0                21           1            30   30     2       0.5897525101E-04      44   33    1         0.3160906805E-02      0.5387155399E-01
          0                22           1            33   31     2       0.5119536328E-04      46   31    1         0.2898957689E-02      0.4884618392E-01
          0                23           1            30   32     2       0.4865726752E-04      44   33    1         0.2626112820E-02      0.4427595911E-01
          0                24           1            33   31     2       0.4194403392E-04      46   31    1         0.2348525970E-02      0.4015243089E-01
          0                25           1            30   32     2       0.4014016979E-04      44   33    1         0.2176894436E-02      0.3639563573E-01
          0                26           1            33   31     2       0.3437810479E-04      46   31    1         0.1897506569E-02      0.3301040045E-01
          0                27           1            30   32     2       0.3310359743E-04      44   33    1         0.1800773513E-02      0.2992196787E-01
          0                28           1            33   31     2       0.2818784524E-04      40   33    1         0.1556534984E-02      0.2714175756E-01
          0                29           1            30   32     2       0.2729004610E-04      44   33    1         0.1486775312E-02      0.2460255761E-01
          0                30           1            33   31     2       0.2312133800E-04      40   33    1         0.1303737100E-02      0.2231855281E-01
                                                   Max.-Head-Change                         Max.-Flux-Residual
  Residual-Control   Outer-Iter.   Inner-Iter.     Column Row Layer    Maximum-Head-Change  Column Row Layer    Maximum-Flux-Residual          L2-NORM 
          0                31           1            31   31     2       0.2249042867E-04      44   33    1         0.1225339602E-02      0.2023075339E-01
          0                32           1            33   31     2       0.1897335177E-04      40   33    1         0.1089848672E-02      0.1835395259E-01
          0                33           1            31   31     2       0.1853173073E-04      44   33    1         0.1008200681E-02      0.1663720207E-01
          0                34           1            33   31     2       0.1557641725E-04      40   33    1         0.9092833770E-03      0.1509472000E-01
          0                35           1            31   31     2       0.1526249923E-04      44   33    1         0.8282577035E-03      0.1368301032E-01
          0                36           1            33   31     2       0.1279372461E-04      40   33    1         0.7571879136E-03      0.1241510125E-01
          0                37           1            31   31     2       0.1256330920E-04      44   33    1         0.6794451912E-03      0.1125419403E-01
          0                38           1            33   31     2       0.1051344290E-04      40   33    1         0.6293559581E-03      0.1021184667E-01
          0                39           1            31   31     2       0.1033560324E-04      44   33    1         0.5566087186E-03      0.9257163480E-02
          0                40           1            31   32     1       0.8659977706E-05      40   33    1         0.5221512621E-03      0.8400150089E-02

    ------------------------------------------------
       NWT REQUIRED           40 OUTER ITERATIONS 
       AND A TOTAL OF         42 INNER ITERATIONS.
    ------------------------------------------------

 OUTPUT CONTROL FOR STRESS PERIOD    1   TIME STEP   41
    SAVE HEAD FOR ALL LAYERS
 SOLVING FOR ZETA FOR LAYER     1 ZONE     2

     905 UPPER PART EQS.       912 LOWER PART EQS.    BAND WIDTH + 1 =   44
 STRESS PERIOD=  1 TIMESTEP= 41 LAYER=  1 ZONE=  2 ACTIVE CELLS= 1817 NUMBER OF EQUATIONS=    1817
 UBUDSV SAVING "      ZETASRF  1" ON UNIT 55 AT TIME STEP 41, STRESS PERIOD    1

 HEAD WILL BE SAVED ON UNIT   51 AT END OF TIME STEP   41, STRESS PERIOD    1
 
 SOLVING FOR HEAD 
                                                   Max.-Head-Change                         Max.-Flux-Residual
  Residual-Control   Outer-Iter.   Inner-Iter.     Column Row Layer    Maximum-Head-Change  Column Row Layer    Maximum-Flux-Residual          L2-NORM 
          0                 1           2            31   52     1       0.4865151444E-02      52   33    1         0.2708430223E+01      0.1664390918E+02
          0                 2           1            30   50     2      -0.4485993416E-03      49   32    1        -0.3442652878E-01      0.3422316798E+00
          0                 3           1            47   32     1      -0.1554032655E-03      47   32    1        -0.1728358832E-01      0.2108513871E+00
          0                 4           1            44   32     2      -0.1985033339E-03      49   32    1        -0.1037980691E-01      0.1628071150E+00
          0                 5           1            41   35     2      -0.9089993143E-04      47   34    1        -0.8941934998E-02      0.1388914871E+00
          0                 6           1            37   36     2      -0.1571485413E-03      37   35    2        -0.7599123491E-02      0.1213203324E+00
          0                 7           1            29   34     2      -0.7820328720E-04      36   36    2        -0.7641961028E-02      0.1092712131E+00
          0                 8           1            32   32     2      -0.1362995698E-03      37   35    2        -0.6552139749E-02      0.9618816809E-01
          0                 9           1            32   32     2      -0.6862673867E-04      36   36    2        -0.6505993863E-02      0.8745001446E-01
          0                10           1            31   31     2      -0.1099146753E-03      28   28    2        -0.5491887470E-02      0.7722369460E-01
                                                   Max.-Head-Change                         Max.-Flux-Residual
  Residual-Control   Outer-Iter.   Inner-Iter.     Column Row Layer    Maximum-Head-Change  Column Row Layer    Maximum-Flux-Residual          L2-NORM 
          0                11           1            32   32     2      -0.5786221658E-04      28   28    2        -0.5341192158E-02      0.7034745711E-01
          0                12           1            31   31     2      -0.8686620346E-04      28   28    2        -0.4520232713E-02      0.6237093284E-01
          0                13           1            32   32     2      -0.4808265121E-04      28   28    2        -0.4342256599E-02      0.5684940603E-01
          0                14           1            31   31     2      -0.6873494011E-04      28   28    2        -0.3693900449E-02      0.5056992204E-01
          0                15           1            32   32     2      -0.3975454606E-04      28   28    2        -0.3519711393E-02      0.4610192953E-01
          0                16           1            31   31     2      -0.5463323596E-04      28   28    2        -0.3014531604E-02      0.4111509518E-01
          0                17           1            32   32     2      -0.3282704677E-04      28   28    2        -0.2853841162E-02      0.3748386837E-01
          0                18           1            31   31     2      -0.4360603063E-04      28   28    2        -0.2461220377E-02      0.3349831079E-01
          0                19           1            32   32     2      -0.2710079234E-04      28   28    2        -0.2316613331E-02      0.3053955977E-01
          0                20           1            31   31     2      -0.3494583276E-04      28   28    2        -0.2011310112E-02      0.2733857753E-01
                                                   Max.-Head-Change                         Max.-Flux-Residual
  Residual-Control   Outer-Iter.   Inner-Iter.     Column Row Layer    Maximum-Head-Change  Column Row Layer    Maximum-Flux-Residual          L2-NORM 
          0                21           1            31   31     2      -0.2238081362E-04      28   28    2        -0.1883213934E-02      0.2492146646E-01
          0                22           1            31   31     2      -0.2809150227E-04      28   28    2        -0.1645197466E-02      0.2234136139E-01
          0                23           1            31   31     2      -0.1849548318E-04      28   28    2        -0.1532912795E-02      0.2036326382E-01
          0                24           1            31   31     2      -0.2263634207E-04      28   28    2        -0.1346912538E-02      0.1827797300E-01
          0                25           1            31   31     2      -0.1529294115E-04      28   28    2        -0.1249255266E-02      0.1665647443E-01
          0                26           1            31   31     2      -0.1827649630E-04      28   28    2        -0.1103563725E-02      0.1496770193E-01
          0                27           1            31   31     2      -0.1264770308E-04      28   28    2        -0.1019173008E-02      0.1363705013E-01
          0                28           1            31   31     2      -0.1478757850E-04      28   28    2        -0.9047545245E-03      0.1226692653E-01
          0                29           1            31   31     2      -0.1046388201E-04      28   28    2        -0.8323278188E-03      0.1117370978E-01
          0                30           1            30   31     1      -0.1198268923E-04      28   28    2        -0.7421588742E-03      0.1006030494E-01
          0                31           1            31   31     2      -0.8657568247E-05      28   28    2        -0.6803166347E-03      0.9161491570E-02

    ------------------------------------------------
       NWT REQUIRED           31 OUTER ITERATIONS 
       AND A TOTAL OF         32 INNER ITERATIONS.
    ------------------------------------------------

 OUTPUT CONTROL FOR STRESS PERIOD    1   TIME STEP   42
    SAVE HEAD FOR ALL LAYERS
 SOLVING FOR ZETA FOR LAYER     1 ZONE     2

     921 UPPER PART EQS.       924 LOWER PART EQS.    BAND WIDTH + 1 =   44
 STRESS PERIOD=  1 TIMESTEP= 42 LAYER=  1 ZONE=  2 ACTIVE CELLS= 1845 NUMBER OF EQUATIONS=    1845
 UBUDSV SAVING "      ZETASRF  1" ON UNIT 55 AT TIME STEP 42, STRESS PERIOD    1

 HEAD WILL BE SAVED ON UNIT   51 AT END OF TIME STEP   42, STRESS PERIOD    1
 
 SOLVING FOR HEAD 
                                                   Max.-Head-Change                         Max.-Flux-Residual
  Residual-Control   Outer-Iter.   Inner-Iter.     Column Row Layer    Maximum-Head-Change  Column Row Layer    Maximum-Flux-Residual          L2-NORM 
          0                 1           2            45   45     1       0.1724304270E-02      51   33    1        -0.9045302195E+00      0.7510894744E+01
          0                 2           1            43   43     2       0.1500914286E-03      20   16    2         0.8579985697E-02      0.1461006880E+00
          0                 3           1            21   20     1       0.7926573038E-04      45   40    1         0.4648774124E-02      0.9826354949E-01
          0                 4           1            21   21     2       0.7975804556E-04      48   33    1         0.4475983295E-02      0.8246155041E-01
          0                 5           1            31   24     1       0.5605018214E-04      45   32    1         0.3425747342E-02      0.7235820704E-01
          0                 6           1            30   27     1       0.6957563243E-04      48   33    1         0.3443027059E-02      0.6452593313E-01
          0                 7           1            31   29     2       0.5045038873E-04      45   32    1         0.2948598569E-02      0.5789328952E-01
          0                 8           1            31   30     1       0.6358087735E-04      48   33    1         0.2710393948E-02      0.5210879137E-01
          0                 9           1            30   30     2       0.4236667594E-04      45   32    1         0.2552501529E-02      0.4691555035E-01
          0                10           1            30   30     2       0.5504849212E-04      48   33    1         0.2143607348E-02      0.4229851321E-01
                                                   Max.-Head-Change                         Max.-Flux-Residual
  Residual-Control   Outer-Iter.   Inner-Iter.     Column Row Layer    Maximum-Head-Change  Column Row Layer    Maximum-Flux-Residual          L2-NORM 
          0                11           1            31   31     2       0.3437014204E-04      45   32    1         0.2192631177E-02      0.3809073388E-01
          0                12           1            30   30     2       0.4649350510E-04      48   33    1         0.1691678557E-02      0.3433909237E-01
          0                13           1            31   31     2       0.2762912913E-04      45   32    1         0.1861358646E-02      0.3091012003E-01
          0                14           1            30   30     2       0.3876908480E-04      36   32    2         0.1379408827E-02      0.2784958378E-01
          0                15           1            31   31     2       0.2212598720E-04      45   32    1         0.1560825167E-02      0.2505492083E-01
          0                16           1            30   30     2       0.3206236989E-04      36   32    2         0.1135783581E-02      0.2255809655E-01
          0                17           1            32   32     2       0.1774668120E-04      45   32    1         0.1293673681E-02      0.2028399171E-01
          0                18           1            30   30     2       0.2636001421E-04      36   32    2         0.9301415402E-03      0.1825000304E-01
          0                19           1            32   32     2       0.1425888790E-04      45   32    1         0.1061029023E-02      0.1640298127E-01
          0                20           1            30   30     2       0.2157554652E-04      42   35    1         0.7643974660E-03      0.1474919300E-01
                                                   Max.-Head-Change                         Max.-Flux-Residual
  Residual-Control   Outer-Iter.   Inner-Iter.     Column Row Layer    Maximum-Head-Change  Column Row Layer    Maximum-Flux-Residual          L2-NORM 
          0                21           1            32   32     2       0.1146418460E-04      45   32    1         0.8621814930E-03      0.1325175410E-01
          0                22           1            30   30     2       0.1759952556E-04      42   35    1         0.6311721281E-03      0.1190967535E-01
          0                23           1            32   32     2       0.9221192317E-05      45   32    1         0.6949633129E-03      0.1069755690E-01

    ------------------------------------------------
       NWT REQUIRED           23 OUTER ITERATIONS 
       AND A TOTAL OF         24 INNER ITERATIONS.
    ------------------------------------------------

 OUTPUT CONTROL FOR STRESS PERIOD    1   TIME STEP   43
    SAVE HEAD FOR ALL LAYERS
 SOLVING FOR ZETA FOR LAYER     1 ZONE     2
 STRESS PERIOD=  1 TIMESTEP= 43 LAYER=  1 ZONE=  2 ACTIVE CELLS= 1845 NUMBER OF EQUATIONS=    1845
 UBUDSV SAVING "      ZETASRF  1" ON UNIT 55 AT TIME STEP 43, STRESS PERIOD    1

 HEAD WILL BE SAVED ON UNIT   51 AT END OF TIME STEP   43, STRESS PERIOD    1
 
 SOLVING FOR HEAD 
                                                   Max.-Head-Change                         Max.-Flux-Residual
  Residual-Control   Outer-Iter.   Inner-Iter.     Column Row Layer    Maximum-Head-Change  Column Row Layer    Maximum-Flux-Residual          L2-NORM 
          0                 1           2            36   51     1       0.3910951813E-02      36   10    1        -0.3393834698E+01      0.1454819561E+02
          0                 2           1            31   15     2       0.2686707139E-03      49   36    1         0.1340200996E-01      0.2494343046E+00
          0                 3           1            23   20     1       0.1325264552E-03      33   52    1         0.1156740213E-01      0.1884844433E+00
          0                 4           1            25   21     2       0.1585589489E-03      49   36    1         0.7605636937E-02      0.1607450511E+00
          0                 5           1            30   25     1       0.1024838306E-03      33   52    1         0.7464096577E-02      0.1415316578E+00
          0                 6           1            29   28     1       0.1437784324E-03      48   33    1         0.5490248718E-02      0.1261419797E+00
          0                 7           1            31   29     2       0.9410935775E-04      33   52    1         0.5587602942E-02      0.1131751305E+00
          0                 8           1            31   30     1       0.1296844604E-03      30   30    2         0.4601374746E-02      0.1017244757E+00
          0                 9           1            31   31     2       0.7976733229E-04      46   27    1         0.4623419826E-02      0.9159209501E-01
          0                10           1            31   31     2       0.1096725873E-03      30   30    2         0.3915006689E-02      0.8248058396E-01
                                                   Max.-Head-Change                         Max.-Flux-Residual
  Residual-Control   Outer-Iter.   Inner-Iter.     Column Row Layer    Maximum-Head-Change  Column Row Layer    Maximum-Flux-Residual          L2-NORM 
          0                11           1            31   31     2       0.6565183155E-04      46   35    1         0.3904095612E-02      0.7431678415E-01
          0                12           1            31   31     2       0.9056147741E-04      30   30    2         0.3243589740E-02      0.6696234206E-01
          0                13           1            31   31     2       0.5345522171E-04      46   35    1         0.3323306457E-02      0.6034796440E-01
          0                14           1            31   31     2       0.7407053808E-04      30   30    2         0.2660142414E-02      0.5439109343E-01
          0                15           1            32   30     2       0.4338139210E-04      46   35    1         0.2800550504E-02      0.4902643766E-01
          0                16           1            31   31     2       0.6034375562E-04      30   30    2         0.2173097625E-02      0.4419595512E-01
          0                17           1            32   30     2       0.3519937983E-04      46   35    1         0.2338007092E-02      0.3984343731E-01
          0                18           1            31   31     2       0.4908365894E-04      30   30    2         0.1772646894E-02      0.3592392351E-01
          0                19           1            32   31     2       0.2856906320E-04      46   35    1         0.1935911501E-02      0.3239152723E-01
          0                20           1            31   31     2       0.3990404057E-04      30   30    2         0.1445261002E-02      0.2920964901E-01
                                                   Max.-Head-Change                         Max.-Flux-Residual
  Residual-Control   Outer-Iter.   Inner-Iter.     Column Row Layer    Maximum-Head-Change  Column Row Layer    Maximum-Flux-Residual          L2-NORM 
          0                21           1            33   31     2       0.2321505688E-04      46   35    1         0.1591827977E-02      0.2634183745E-01
          0                22           1            31   31     2       0.3243916811E-04      30   30    2         0.1178113320E-02      0.2375763664E-01
          0                23           1            32   31     1       0.1890006330E-04      46   35    1         0.1301288086E-02      0.2142848988E-01
          0                24           1            31   31     2       0.2637352092E-04      43   38    1         0.9684313603E-03      0.1932883148E-01
          0                25           1            32   31     1       0.1540886047E-04      46   35    1         0.1058653193E-02      0.1743645683E-01
          0                26           1            31   31     2       0.2144489129E-04      43   38    1         0.7949975401E-03      0.1572983515E-01
          0                27           1            32   31     1       0.1257221329E-04      46   35    1         0.8578477554E-03      0.1419178305E-01
          0                28           1            31   31     2       0.1743896086E-04      43   38    1         0.6500839098E-03      0.1280414439E-01
          0                29           1            32   31     1       0.1026378465E-04      46   35    1         0.6928793727E-03      0.1155367230E-01
          0                30           1            31   31     2       0.1418181287E-04      43   38    1         0.5297237813E-03      0.1042504719E-01
          0                31           1            32   31     1       0.8382723867E-05      46   35    1         0.5581604286E-03      0.9408094197E-02

    ------------------------------------------------
       NWT REQUIRED           31 OUTER ITERATIONS 
       AND A TOTAL OF         32 INNER ITERATIONS.
    ------------------------------------------------

 OUTPUT CONTROL FOR STRESS PERIOD    1   TIME STEP   44
    SAVE HEAD FOR ALL LAYERS
 SOLVING FOR ZETA FOR LAYER     1 ZONE     2

     913 UPPER PART EQS.       924 LOWER PART EQS.    BAND WIDTH + 1 =   44
 STRESS PERIOD=  1 TIMESTEP= 44 LAYER=  1 ZONE=  2 ACTIVE CELLS= 1837 NUMBER OF EQUATIONS=    1837
 UBUDSV SAVING "      ZETASRF  1" ON UNIT 55 AT TIME STEP 44, STRESS PERIOD    1

 HEAD WILL BE SAVED ON UNIT   51 AT END OF TIME STEP   44, STRESS PERIOD    1
 
 SOLVING FOR HEAD 
                                                   Max.-Head-Change                         Max.-Flux-Residual
  Residual-Control   Outer-Iter.   Inner-Iter.     Column Row Layer    Maximum-Head-Change  Column Row Layer    Maximum-Flux-Residual          L2-NORM 
          0                 1           2            26   52     1       0.3495495893E-02      52   36    1         0.2756179216E+01      0.1036852259E+02
          0                 2           1            29   51     2      -0.1219359731E-03      29   51    2        -0.8789508277E-02      0.1158464466E+00
          0                 3           1            31   49     2      -0.2499902230E-04      48   29    1        -0.4206323307E-02      0.4681716136E-01
          0                 4           1            32   34     2       0.2764213908E-04      30   51    1        -0.1436014947E-02      0.2584462492E-01
          0                 5           1            30   30     2       0.1745657453E-04      31   29    2         0.1054814128E-02      0.1870153524E-01
          0                 6           1            31   29     2       0.2538661123E-04      31   29    2         0.9083920627E-03      0.1592654003E-01
          0                 7           1            30   28     2       0.1422243085E-04      31   18    1         0.8989173096E-03      0.1420246726E-01
          0                 8           1            30   28     2       0.1718416035E-04      31   18    1         0.7485003476E-03      0.1260486112E-01
          0                 9           1            30   28     2       0.1175640658E-04      31   18    1         0.6999841971E-03      0.1144137211E-01
          0                10           1            30   28     2       0.1218035056E-04      31   18    1         0.5844924100E-03      0.1021583044E-01
          0                11           1            30   28     2       0.9707351117E-05      31   18    1         0.5362518236E-03      0.9267495334E-02

    ------------------------------------------------
       NWT REQUIRED           11 OUTER ITERATIONS 
       AND A TOTAL OF         12 INNER ITERATIONS.
    ------------------------------------------------

 OUTPUT CONTROL FOR STRESS PERIOD    1   TIME STEP   45
    SAVE HEAD FOR ALL LAYERS
 SOLVING FOR ZETA FOR LAYER     1 ZONE     2

     921 UPPER PART EQS.       924 LOWER PART EQS.    BAND WIDTH + 1 =   44
 STRESS PERIOD=  1 TIMESTEP= 45 LAYER=  1 ZONE=  2 ACTIVE CELLS= 1845 NUMBER OF EQUATIONS=    1845
 UBUDSV SAVING "      ZETASRF  1" ON UNIT 55 AT TIME STEP 45, STRESS PERIOD    1

 HEAD WILL BE SAVED ON UNIT   51 AT END OF TIME STEP   45, STRESS PERIOD    1
 
 SOLVING FOR HEAD 
                                                   Max.-Head-Change                         Max.-Flux-Residual
  Residual-Control   Outer-Iter.   Inner-Iter.     Column Row Layer    Maximum-Head-Change  Column Row Layer    Maximum-Flux-Residual          L2-NORM 
          0                 1           2            44   44     1       0.1676739464E-02      11   26    1        -0.7556884034E+00      0.5915817867E+01
          0                 2           1            43   17     2       0.1517690382E-03      20   16    2         0.8112404672E-02      0.1431944711E+00
          0                 3           1            23   20     1       0.8156904806E-04      45   40    1         0.4462760269E-02      0.1002912872E+00
          0                 4           1            24   22     2       0.8406361583E-04      48   37    1         0.4284903284E-02      0.8606335056E-01
          0                 5           1            30   25     1       0.6188697954E-04      45   32    1         0.3472050207E-02      0.7628943988E-01
          0                 6           1            30   27     1       0.7664321184E-04      48   33    1         0.3376887220E-02      0.6827246207E-01
          0                 7           1            30   30     2       0.5492347308E-04      45   32    1         0.3000837199E-02      0.6138334021E-01
          0                 8           1            31   30     1       0.6827783579E-04      48   33    1         0.2707981792E-02      0.5526987194E-01
          0                 9           1            30   30     2       0.4566787336E-04      45   32    1         0.2601537841E-02      0.4979830385E-01
          0                10           1            30   30     2       0.5825079870E-04      48   33    1         0.2165266803E-02      0.4489451835E-01
                                                   Max.-Head-Change                         Max.-Flux-Residual
  Residual-Control   Outer-Iter.   Inner-Iter.     Column Row Layer    Maximum-Head-Change  Column Row Layer    Maximum-Flux-Residual          L2-NORM 
          0                11           1            31   31     2       0.3698937033E-04      45   32    1         0.2238905855E-02      0.4045165832E-01
          0                12           1            30   30     2       0.4880732782E-04      35   29    2         0.1771336010E-02      0.3646990494E-01
          0                13           1            31   31     2       0.2976723282E-04      45   32    1         0.1906007943E-02      0.3284968646E-01
          0                14           1            30   30     2       0.4053451181E-04      36   32    2         0.1468182308E-02      0.2960558363E-01
          0                15           1            31   31     2       0.2388369587E-04      45   32    1         0.1604285369E-02      0.2665510526E-01
          0                16           1            30   30     2       0.3347811172E-04      36   32    2         0.1210800564E-02      0.2401057520E-01
          0                17           1            32   32     2       0.1917512428E-04      45   32    1         0.1335722710E-02      0.2160820987E-01
          0                18           1            30   30     2       0.2754244743E-04      36   32    2         0.9937296294E-03      0.1945383212E-01
          0                19           1            32   32     2       0.1542756327E-04      45   32    1         0.1100994054E-02      0.1750018196E-01
          0                20           1            30   30     2       0.2259193026E-04      36   32    2         0.8123474289E-03      0.1574705132E-01
                                                   Max.-Head-Change                         Max.-Flux-Residual
  Residual-Control   Outer-Iter.   Inner-Iter.     Column Row Layer    Maximum-Head-Change  Column Row Layer    Maximum-Flux-Residual          L2-NORM 
          0                21           1            32   32     2       0.1241544145E-04      45   32    1         0.8992377645E-03      0.1416030352E-01
          0                22           1            30   30     2       0.1848779559E-04      36   32    2         0.6617336920E-03      0.1273547737E-01
          0                23           1            32   32     2       0.9991250590E-05      45   32    1         0.7283706009E-03      0.1144824643E-01

    ------------------------------------------------
       NWT REQUIRED           23 OUTER ITERATIONS 
       AND A TOTAL OF         24 INNER ITERATIONS.
    ------------------------------------------------

 OUTPUT CONTROL FOR STRESS PERIOD    1   TIME STEP   46
    SAVE HEAD FOR ALL LAYERS
 SOLVING FOR ZETA FOR LAYER     1 ZONE     2
 STRESS PERIOD=  1 TIMESTEP= 46 LAYER=  1 ZONE=  2 ACTIVE CELLS= 1845 NUMBER OF EQUATIONS=    1845
 UBUDSV SAVING "      ZETASRF  1" ON UNIT 55 AT TIME STEP 46, STRESS PERIOD    1

 HEAD WILL BE SAVED ON UNIT   51 AT END OF TIME STEP   46, STRESS PERIOD    1
 
 SOLVING FOR HEAD 
                                                   Max.-Head-Change                         Max.-Flux-Residual
  Residual-Control   Outer-Iter.   Inner-Iter.     Column Row Layer    Maximum-Head-Change  Column Row Layer    Maximum-Flux-Residual          L2-NORM 
          0                 1           2            44   44     1       0.1661565151E-02      36   11    1        -0.6221357283E+00      0.5546141572E+01
          0                 2           1            43   17     2       0.1507798396E-03      20   16    2         0.7897651997E-02      0.1407081473E+00
          0                 3           1            22   21     1       0.8075463523E-04      45   40    1         0.4354532440E-02      0.9905580689E-01
          0                 4           1            24   22     2       0.8326503014E-04      48   37    1         0.4108687137E-02      0.8527817535E-01
          0                 5           1            29   26     1       0.6206217659E-04      45   32    1         0.3425659221E-02      0.7572283832E-01
          0                 6           1            30   28     2       0.7614782729E-04      48   33    1         0.3309486833E-02      0.6778993889E-01
          0                 7           1            30   30     2       0.5520009390E-04      45   32    1         0.2953517634E-02      0.6098923877E-01
          0                 8           1            31   30     1       0.6724386083E-04      48   33    1         0.2674452776E-02      0.5491800294E-01
          0                 9           1            30   30     2       0.4598425326E-04      45   32    1         0.2555425882E-02      0.4951085044E-01
          0                10           1            30   30     2       0.5702375358E-04      48   33    1         0.2151535685E-02      0.4464184214E-01
                                                   Max.-Head-Change                         Max.-Flux-Residual
  Residual-Control   Outer-Iter.   Inner-Iter.     Column Row Layer    Maximum-Head-Change  Column Row Layer    Maximum-Flux-Residual          L2-NORM 
          0                11           1            31   31     2       0.3736455023E-04      45   32    1         0.2196865988E-02      0.4025307813E-01
          0                12           1            30   30     2       0.4761008641E-04      35   29    2         0.1763150425E-02      0.3630302778E-01
          0                13           1            31   31     2       0.3016092111E-04      45   32    1         0.1870233834E-02      0.3272682154E-01
          0                14           1            30   30     2       0.3945943605E-04      36   32    2         0.1463080299E-02      0.2951107006E-01
          0                15           1            31   31     2       0.2427008276E-04      45   32    1         0.1575754173E-02      0.2659550117E-01
          0                16           1            30   30     2       0.3256952684E-04      36   32    2         0.1208787397E-02      0.2397502266E-01
          0                17           1            32   32     2       0.1952805789E-04      45   32    1         0.1314469723E-02      0.2159903621E-01
          0                18           1            30   30     2       0.2681092497E-04      36   32    2         0.9943055850E-03      0.1946375799E-01
          0                19           1            32   32     2       0.1574685617E-04      45   32    1         0.1086405752E-02      0.1752879023E-01
          0                20           1            30   30     2       0.2202576005E-04      36   32    2         0.8148687875E-03      0.1578979113E-01
                                                   Max.-Head-Change                         Max.-Flux-Residual
  Residual-Control   Outer-Iter.   Inner-Iter.     Column Row Layer    Maximum-Head-Change  Column Row Layer    Maximum-Flux-Residual          L2-NORM 
          0                21           1            32   32     2       0.1269884920E-04      45   32    1         0.8903029441E-03      0.1421521850E-01
          0                22           1            30   30     2       0.1806483911E-04      36   32    2         0.6655786331E-03      0.1280002591E-01
          0                23           1            32   32     2       0.1023955388E-04      45   32    1         0.7239255593E-03      0.1151976517E-01
          0                24           1            29   31     2       0.1479836947E-04      42   35    1         0.5484632662E-03      0.1036904952E-01
          0                25           1            32   32     2       0.8253543882E-05      45   32    1         0.5844304046E-03      0.9328923366E-02

    ------------------------------------------------
       NWT REQUIRED           25 OUTER ITERATIONS 
       AND A TOTAL OF         26 INNER ITERATIONS.
    ------------------------------------------------

 OUTPUT CONTROL FOR STRESS PERIOD    1   TIME STEP   47
    SAVE HEAD FOR ALL LAYERS
 SOLVING FOR ZETA FOR LAYER     1 ZONE     2

     929 UPPER PART EQS.       924 LOWER PART EQS.    BAND WIDTH + 1 =   44
 STRESS PERIOD=  1 TIMESTEP= 47 LAYER=  1 ZONE=  2 ACTIVE CELLS= 1853 NUMBER OF EQUATIONS=    1853
 UBUDSV SAVING "      ZETASRF  1" ON UNIT 55 AT TIME STEP 47, STRESS PERIOD    1

 HEAD WILL BE SAVED ON UNIT   51 AT END OF TIME STEP   47, STRESS PERIOD    1
 
 SOLVING FOR HEAD 
                                                   Max.-Head-Change                         Max.-Flux-Residual
  Residual-Control   Outer-Iter.   Inner-Iter.     Column Row Layer    Maximum-Head-Change  Column Row Layer    Maximum-Flux-Residual          L2-NORM 
          0                 1           2            44   44     1       0.1646074009E-02      36   11    1        -0.5130650742E+00      0.5282864563E+01
          0                 2           1            43   17     2       0.1513405498E-03      20   16    2         0.7732520261E-02      0.1370594995E+00
          0                 3           1            22   21     1       0.7855856707E-04      21   20    1         0.4230999876E-02      0.9636808613E-01
          0                 4           1            24   22     2       0.8073276986E-04      48   33    1         0.3882690376E-02      0.8284308550E-01
          0                 5           1            29   26     1       0.5993713599E-04      45   32    1         0.3296193946E-02      0.7355388509E-01
          0                 6           1            30   28     2       0.7351386953E-04      48   33    1         0.3151777340E-02      0.6575587109E-01
          0                 7           1            30   30     2       0.5354402715E-04      45   32    1         0.2836671894E-02      0.5918930494E-01
          0                 8           1            31   30     1       0.6470625322E-04      48   33    1         0.2561142937E-02      0.5325169578E-01
          0                 9           1            30   30     2       0.4484976136E-04      45   32    1         0.2449680140E-02      0.4804407893E-01
          0                10           1            30   30     2       0.5463456793E-04      48   33    1         0.2072247330E-02      0.4329579341E-01
                                                   Max.-Head-Change                         Max.-Flux-Residual
  Residual-Control   Outer-Iter.   Inner-Iter.     Column Row Layer    Maximum-Head-Change  Column Row Layer    Maximum-Flux-Residual          L2-NORM 
          0                11           1            31   31     2       0.3662443340E-04      45   32    1         0.2102941369E-02      0.3907320118E-01
          0                12           1            30   30     2       0.4541303847E-04      35   29    2         0.1709421652E-02      0.3522963937E-01
          0                13           1            31   31     2       0.2969282207E-04      45   32    1         0.1788918460E-02      0.3179089428E-01
          0                14           1            30   30     2       0.3751645010E-04      36   32    2         0.1418952379E-02      0.2866730773E-01
          0                15           1            31   31     2       0.2398218369E-04      45   32    1         0.1507454588E-02      0.2586399019E-01
          0                16           1            30   30     2       0.3091052168E-04      36   32    2         0.1174307670E-02      0.2332137889E-01
          0                17           1            32   32     2       0.1934667010E-04      45   32    1         0.1258852590E-02      0.2103561971E-01
          0                18           1            30   30     2       0.2543077852E-04      36   32    2         0.9679195765E-03      0.1896469260E-01
          0                19           1            32   32     2       0.1564080810E-04      45   32    1         0.1042447378E-02      0.1710138149E-01
          0                20           1            30   30     2       0.2090540506E-04      36   32    2         0.7950683120E-03      0.1541441585E-01
                                                   Max.-Head-Change                         Max.-Flux-Residual
  Residual-Control   Outer-Iter.   Inner-Iter.     Column Row Layer    Maximum-Head-Change  Column Row Layer    Maximum-Flux-Residual          L2-NORM 
          0                21           1            32   32     2       0.1264064094E-04      45   32    1         0.8565795995E-03      0.1389594790E-01
          0                22           1            30   30     2       0.1717434264E-04      42   35    1         0.6525256678E-03      0.1252193683E-01
          0                23           1            32   32     2       0.1021142380E-04      45   32    1         0.6988175838E-03      0.1128499342E-01
          0                24           1            29   31     2       0.1410337789E-04      42   35    1         0.5400425346E-03      0.1016622780E-01
          0                25           1            32   32     2       0.8244082833E-05      45   32    1         0.5663072998E-03      0.9159103172E-02

    ------------------------------------------------
       NWT REQUIRED           25 OUTER ITERATIONS 
       AND A TOTAL OF         26 INNER ITERATIONS.
    ------------------------------------------------

 OUTPUT CONTROL FOR STRESS PERIOD    1   TIME STEP   48
    SAVE HEAD FOR ALL LAYERS
 SOLVING FOR ZETA FOR LAYER     1 ZONE     2

     921 UPPER PART EQS.       932 LOWER PART EQS.    BAND WIDTH + 1 =   44
 STRESS PERIOD=  1 TIMESTEP= 48 LAYER=  1 ZONE=  2 ACTIVE CELLS= 1853 NUMBER OF EQUATIONS=    1853
 UBUDSV SAVING "      ZETASRF  1" ON UNIT 55 AT TIME STEP 48, STRESS PERIOD    1

 HEAD WILL BE SAVED ON UNIT   51 AT END OF TIME STEP   48, STRESS PERIOD    1
 
 SOLVING FOR HEAD 
                                                   Max.-Head-Change                         Max.-Flux-Residual
  Residual-Control   Outer-Iter.   Inner-Iter.     Column Row Layer    Maximum-Head-Change  Column Row Layer    Maximum-Flux-Residual          L2-NORM 
          0                 1           2            44   43     1       0.1630859897E-02      36   11    1        -0.4240642704E+00      0.5163438561E+01
          0                 2           1            43   17     2       0.1481969664E-03      20   16    2         0.7532188325E-02      0.1336629004E+00
          0                 3           1            22   21     1       0.7664020715E-04      21   20    1         0.4144906108E-02      0.9354595410E-01
          0                 4           1            24   22     2       0.7867112937E-04      48   33    1         0.3610542958E-02      0.8050958547E-01
          0                 5           1            29   26     1       0.5863258696E-04      45   32    1         0.3134906374E-02      0.7151410464E-01
          0                 6           1            31   29     2       0.7143245840E-04      48   33    1         0.2942872783E-02      0.6397292286E-01
          0                 7           1            30   30     2       0.5246923350E-04      45   32    1         0.2683811734E-02      0.5758241470E-01
          0                 8           1            31   30     1       0.6240494289E-04      48   33    1         0.2401544661E-02      0.5183103022E-01
          0                 9           1            30   30     2       0.4412461841E-04      45   32    1         0.2306661430E-02      0.4676533451E-01
          0                10           1            30   30     2       0.5238606312E-04      30   30    2         0.2005134841E-02      0.4216606629E-01
                                                   Max.-Head-Change                         Max.-Flux-Residual
  Residual-Control   Outer-Iter.   Inner-Iter.     Column Row Layer    Maximum-Head-Change  Column Row Layer    Maximum-Flux-Residual          L2-NORM 
          0                11           1            31   31     2       0.3623094313E-04      45   32    1         0.1972632640E-02      0.3805948802E-01
          0                12           1            30   30     2       0.4327468124E-04      35   29    2         0.1662395105E-02      0.3433990198E-01
          0                13           1            31   31     2       0.2953539693E-04      45   32    1         0.1673414565E-02      0.3100010906E-01
          0                14           1            30   30     2       0.3558459173E-04      36   32    2         0.1378565950E-02      0.2797869103E-01
          0                15           1            31   31     2       0.2397741332E-04      45   32    1         0.1407937115E-02      0.2525826591E-01
          0                16           1            30   30     2       0.2922819334E-04      36   32    2         0.1142420869E-02      0.2279895623E-01
          0                17           1            31   31     2       0.1942718809E-04      45   32    1         0.1175479216E-02      0.2058107925E-01
          0                18           1            30   30     2       0.2400690619E-04      36   32    2         0.9434562114E-03      0.1857727873E-01
          0                19           1            32   32     2       0.1575864847E-04      45   32    1         0.9744670687E-03      0.1676846191E-01
          0                20           1            30   30     2       0.1972601366E-04      36   32    2         0.7768547425E-03      0.1513478478E-01
                                                   Max.-Head-Change                         Max.-Flux-Residual
  Residual-Control   Outer-Iter.   Inner-Iter.     Column Row Layer    Maximum-Head-Change  Column Row Layer    Maximum-Flux-Residual          L2-NORM 
          0                21           1            32   32     2       0.1278069456E-04      45   32    1         0.8025579523E-03      0.1365929968E-01
          0                22           1            30   30     2       0.1621479333E-04      36   32    2         0.6379043103E-03      0.1232692475E-01
          0                23           1            32   32     2       0.1035820676E-04      45   32    1         0.6569572420E-03      0.1112329348E-01
          0                24           1            29   31     2       0.1333415829E-04      42   35    1         0.5284542387E-03      0.1003649787E-01
          0                25           1            32   32     2       0.8388439381E-05      45   32    1         0.5346942068E-03      0.9054703765E-02

    ------------------------------------------------
       NWT REQUIRED           25 OUTER ITERATIONS 
       AND A TOTAL OF         26 INNER ITERATIONS.
    ------------------------------------------------

 OUTPUT CONTROL FOR STRESS PERIOD    1   TIME STEP   49
    SAVE HEAD FOR ALL LAYERS
 SOLVING FOR ZETA FOR LAYER     1 ZONE     2

     937 UPPER PART EQS.       924 LOWER PART EQS.    BAND WIDTH + 1 =   44
 STRESS PERIOD=  1 TIMESTEP= 49 LAYER=  1 ZONE=  2 ACTIVE CELLS= 1861 NUMBER OF EQUATIONS=    1861
 UBUDSV SAVING "      ZETASRF  1" ON UNIT 55 AT TIME STEP 49, STRESS PERIOD    1

 HEAD WILL BE SAVED ON UNIT   51 AT END OF TIME STEP   49, STRESS PERIOD    1
 
 SOLVING FOR HEAD 
                                                   Max.-Head-Change                         Max.-Flux-Residual
  Residual-Control   Outer-Iter.   Inner-Iter.     Column Row Layer    Maximum-Head-Change  Column Row Layer    Maximum-Flux-Residual          L2-NORM 
          0                 1           2            43   43     1       0.1618452882E-02       9   48    1         0.3922868835E+00      0.4965010478E+01
          0                 2           1            43   17     2       0.1497055698E-03      20   16    2         0.7417529371E-02      0.1313501989E+00
          0                 3           1            22   21     1       0.7571405317E-04      21   20    1         0.4111047911E-02      0.9189681090E-01
          0                 4           1            24   22     2       0.7626818612E-04      48   33    1         0.3454157366E-02      0.7918897779E-01
          0                 5           1            29   26     1       0.5847935463E-04      45   32    1         0.3031275437E-02      0.7033939029E-01
          0                 6           1            31   29     2       0.6825167473E-04      48   33    1         0.2856755476E-02      0.6294026649E-01
          0                 7           1            30   30     2       0.5312641699E-04      45   32    1         0.2578962720E-02      0.5668753085E-01
          0                 8           1            31   29     2       0.5877634361E-04      48   33    1         0.2360892441E-02      0.5104904401E-01
          0                 9           1            30   30     2       0.4530011653E-04      45   32    1         0.2202341461E-02      0.4611091822E-01
          0                10           1            30   30     2       0.4882381641E-04      30   30    2         0.1973118750E-02      0.4160483559E-01
                                                   Max.-Head-Change                         Max.-Flux-Residual
  Residual-Control   Outer-Iter.   Inner-Iter.     Column Row Layer    Maximum-Head-Change  Column Row Layer    Maximum-Flux-Residual          L2-NORM 
          0                11           1            31   31     2       0.3763773666E-04      45   32    1         0.1873508788E-02      0.3760843432E-01
          0                12           1            30   30     2       0.4004490512E-04      35   29    2         0.1640327808E-02      0.3396319636E-01
          0                13           1            31   31     2       0.3098962072E-04      45   32    1         0.1583537247E-02      0.3071072163E-01
          0                14           1            30   30     2       0.3276877339E-04      36   32    2         0.1363671276E-02      0.2774878055E-01
          0                15           1            31   31     2       0.2536617164E-04      45   32    1         0.1329710459E-02      0.2509564801E-01
          0                16           1            30   30     2       0.2684715853E-04      36   32    2         0.1134159452E-02      0.2268320411E-01
          0                17           1            31   31     2       0.2069039789E-04      45   32    1         0.1109844106E-02      0.2051619922E-01
          0                18           1            30   30     2       0.2204344163E-04      36   32    2         0.9403842231E-03      0.1854815770E-01
          0                19           1            32   32     2       0.1685691865E-04      45   32    1         0.9212367551E-03      0.1677664919E-01
          0                20           1            30   30     2       0.1813753125E-04      36   32    2         0.7776636676E-03      0.1516932305E-01
                                                   Max.-Head-Change                         Max.-Flux-Residual
  Residual-Control   Outer-Iter.   Inner-Iter.     Column Row Layer    Maximum-Head-Change  Column Row Layer    Maximum-Flux-Residual          L2-NORM 
          0                21           1            32   32     2       0.1372990640E-04      45   32    1         0.7607821253E-03      0.1372032040E-01
          0                22           1            30   30     2       0.1495287352E-04      42   35    1         0.6458893166E-03      0.1240649922E-01
          0                23           1            32   32     2       0.1116757501E-04      45   32    1         0.6252741711E-03      0.1122077173E-01
          0                24           1            29   31     2       0.1234858001E-04      42   35    1         0.5394464786E-03      0.1014617758E-01
          0                25           1            32   32     2       0.9072370417E-05      45   32    1         0.5115605577E-03      0.9175599579E-02

    ------------------------------------------------
       NWT REQUIRED           25 OUTER ITERATIONS 
       AND A TOTAL OF         26 INNER ITERATIONS.
    ------------------------------------------------

 OUTPUT CONTROL FOR STRESS PERIOD    1   TIME STEP   50
    SAVE HEAD FOR ALL LAYERS
 SOLVING FOR ZETA FOR LAYER     1 ZONE     2

     921 UPPER PART EQS.       932 LOWER PART EQS.    BAND WIDTH + 1 =   44
 STRESS PERIOD=  1 TIMESTEP= 50 LAYER=  1 ZONE=  2 ACTIVE CELLS= 1853 NUMBER OF EQUATIONS=    1853
 UBUDSV SAVING "      ZETASRF  1" ON UNIT 55 AT TIME STEP 50, STRESS PERIOD    1

 HEAD WILL BE SAVED ON UNIT   51 AT END OF TIME STEP   50, STRESS PERIOD    1
 
 SOLVING FOR HEAD 
                                                   Max.-Head-Change                         Max.-Flux-Residual
  Residual-Control   Outer-Iter.   Inner-Iter.     Column Row Layer    Maximum-Head-Change  Column Row Layer    Maximum-Flux-Residual          L2-NORM 
          0                 1           2            43   43     1       0.1600159204E-02      53   14    1        -0.3841934709E+00      0.4798698256E+01
          0                 2           1            43   17     2       0.1392365969E-03      20   16    2         0.6981298638E-02      0.1252112546E+00
          0                 3           1            22   21     1       0.7274657041E-04      21   20    1         0.3904327879E-02      0.8660705190E-01
          0                 4           1            34   22     2       0.7271886844E-04      48   33    1         0.3205626686E-02      0.7485232815E-01
          0                 5           1            29   26     1       0.5684764327E-04      45   32    1         0.2863835643E-02      0.6661128141E-01
          0                 6           1            31   29     2       0.6449165890E-04      48   33    1         0.2696173861E-02      0.5964468597E-01
          0                 7           1            30   30     2       0.5158020444E-04      45   32    1         0.2434731639E-02      0.5375755670E-01
          0                 8           1            31   29     2       0.5482117464E-04      48   33    1         0.2252499134E-02      0.4841496961E-01
          0                 9           1            30   30     2       0.4408135552E-04      45   32    1         0.2076378245E-02      0.4375103785E-01
          0                10           1            30   30     2       0.4515360938E-04      35   29    2         0.1875464694E-02      0.3948016693E-01
                                                   Max.-Head-Change                         Max.-Flux-Residual
  Residual-Control   Outer-Iter.   Inner-Iter.     Column Row Layer    Maximum-Head-Change  Column Row Layer    Maximum-Flux-Residual          L2-NORM 
          0                11           1            31   31     2       0.3677395591E-04      45   32    1         0.1764372958E-02      0.3570195469E-01
          0                12           1            30   30     2       0.3683031829E-04      35   29    2         0.1559151772E-02      0.3224899532E-01
          0                13           1            31   31     2       0.3042585727E-04      45   32    1         0.1490390274E-02      0.2916984136E-01
          0                14           1            30   30     2       0.2999143102E-04      36   32    2         0.1297065426E-02      0.2636611635E-01
          0                15           1            31   31     2       0.2501281119E-04      45   32    1         0.1251171331E-02      0.2385265868E-01
          0                16           1            30   30     2       0.2448980542E-04      36   32    2         0.1080680609E-02      0.2157000769E-01
          0                17           1            31   31     2       0.2047716020E-04      45   32    1         0.1044546347E-02      0.1951532695E-01
          0                18           1            30   30     2       0.2006174160E-04      36   32    2         0.8978819826E-03      0.1765369774E-01
          0                19           1            32   32     2       0.1672232911E-04      45   32    1         0.8676734023E-03      0.1597282030E-01
          0                20           1            30   30     2       0.1648786835E-04      42   35    1         0.7463395267E-03      0.1445263962E-01
                                                   Max.-Head-Change                         Max.-Flux-Residual
  Residual-Control   Outer-Iter.   Inner-Iter.     Column Row Layer    Maximum-Head-Change  Column Row Layer    Maximum-Flux-Residual          L2-NORM 
          0                21           1            32   32     2       0.1364991348E-04      45   32    1         0.7174325442E-03      0.1307683998E-01
          0                22           1            29   31     2       0.1359121936E-04      42   35    1         0.6289399637E-03      0.1183421560E-01
          0                23           1            32   32     2       0.1112208446E-04      45   32    1         0.5906375748E-03      0.1070767508E-01
          0                24           1            29   31     2       0.1123170198E-04      42   35    1         0.5272092303E-03      0.9691087172E-02
          0                25           1            32   32     2       0.9048557871E-05      45   32    1         0.4842218317E-03      0.8768395769E-02

    ------------------------------------------------
       NWT REQUIRED           25 OUTER ITERATIONS 
       AND A TOTAL OF         26 INNER ITERATIONS.
    ------------------------------------------------

 OUTPUT CONTROL FOR STRESS PERIOD    1   TIME STEP   51
    SAVE HEAD FOR ALL LAYERS
 SOLVING FOR ZETA FOR LAYER     1 ZONE     2

     937 UPPER PART EQS.       940 LOWER PART EQS.    BAND WIDTH + 1 =   46
 STRESS PERIOD=  1 TIMESTEP= 51 LAYER=  1 ZONE=  2 ACTIVE CELLS= 1877 NUMBER OF EQUATIONS=    1877
 UBUDSV SAVING "      ZETASRF  1" ON UNIT 55 AT TIME STEP 51, STRESS PERIOD    1

 HEAD WILL BE SAVED ON UNIT   51 AT END OF TIME STEP   51, STRESS PERIOD    1
 
 SOLVING FOR HEAD 
                                                   Max.-Head-Change                         Max.-Flux-Residual
  Residual-Control   Outer-Iter.   Inner-Iter.     Column Row Layer    Maximum-Head-Change  Column Row Layer    Maximum-Flux-Residual          L2-NORM 
          0                 1           2            43   43     1       0.1595462292E-02       9   48    1         0.3846663406E+00      0.4809975990E+01
          0                 2           1            43   17     2       0.1514245041E-03      44   16    2         0.7275056591E-02      0.1273770450E+00
          0                 3           1            21   20     1       0.7377571998E-04      21   20    1         0.4035986345E-02      0.8886821808E-01
          0                 4           1            24   22     2       0.7325423035E-04      19   21    2         0.3143834483E-02      0.7641525230E-01
          0                 5           1            29   26     1       0.5682468463E-04      45   32    1         0.2795730973E-02      0.6782096226E-01
          0                 6           1            31   29     2       0.6483570894E-04      33   27    2         0.2554657545E-02      0.6066107090E-01
          0                 7           1            31   29     2       0.5206982633E-04      31   29    2         0.2445311865E-02      0.5464070729E-01
          0                 8           1            31   29     2       0.5529177290E-04      31   29    2         0.2253988500E-02      0.4920421818E-01
          0                 9           1            30   30     2       0.4479220650E-04      31   29    2         0.2090170480E-02      0.4446348847E-01
          0                10           1            30   30     2       0.4558928545E-04      30   30    2         0.1901124063E-02      0.4012465621E-01
                                                   Max.-Head-Change                         Max.-Flux-Residual
  Residual-Control   Outer-Iter.   Inner-Iter.     Column Row Layer    Maximum-Head-Change  Column Row Layer    Maximum-Flux-Residual          L2-NORM 
          0                11           1            30   30     2       0.3749919390E-04      31   29    2         0.1739968549E-02      0.3628850632E-01
          0                12           1            30   30     2       0.3718879496E-04      30   30    2         0.1577105799E-02      0.3278095874E-01
          0                13           1            31   31     2       0.3107038297E-04      32   32    2         0.1434941552E-02      0.2965581237E-01
          0                14           1            30   30     2       0.3029756019E-04      36   32    2         0.1306756820E-02      0.2680649909E-01
          0                15           1            31   31     2       0.2556469540E-04      45   32    1         0.1198290336E-02      0.2425433426E-01
          0                16           1            30   30     2       0.2473852952E-04      36   32    2         0.1087168396E-02      0.2193432416E-01
          0                17           1            31   31     2       0.2094149335E-04      45   32    1         0.9989052252E-03      0.1984721549E-01
          0                18           1            30   30     2       0.2025976682E-04      36   32    2         0.9020204893E-03      0.1795522399E-01
          0                19           1            31   31     2       0.1710020189E-04      45   32    1         0.8287783178E-03      0.1624723021E-01
          0                20           1            30   30     2       0.1664309352E-04      36   32    2         0.7466613216E-03      0.1470238405E-01
                                                   Max.-Head-Change                         Max.-Flux-Residual
  Residual-Control   Outer-Iter.   Inner-Iter.     Column Row Layer    Maximum-Head-Change  Column Row Layer    Maximum-Flux-Residual          L2-NORM 
          0                21           1            32   32     2       0.1395967668E-04      45   32    1         0.6846569846E-03      0.1330396592E-01
          0                22           1            30   30     2       0.1370896329E-04      36   32    2         0.6166808156E-03      0.1204132838E-01
          0                23           1            32   32     2       0.1137741672E-04      45   32    1         0.5633048490E-03      0.1089598043E-01
          0                24           1            30   30     2       0.1131728217E-04      42   35    1         0.5123232743E-03      0.9863158122E-02
          0                25           1            32   32     2       0.9259525377E-05      45   32    1         0.4616660369E-03      0.8924807610E-02

    ------------------------------------------------
       NWT REQUIRED           25 OUTER ITERATIONS 
       AND A TOTAL OF         26 INNER ITERATIONS.
    ------------------------------------------------

 OUTPUT CONTROL FOR STRESS PERIOD    1   TIME STEP   52
    SAVE HEAD FOR ALL LAYERS
 SOLVING FOR ZETA FOR LAYER     1 ZONE     2

     921 UPPER PART EQS.       932 LOWER PART EQS.    BAND WIDTH + 1 =   44
 STRESS PERIOD=  1 TIMESTEP= 52 LAYER=  1 ZONE=  2 ACTIVE CELLS= 1853 NUMBER OF EQUATIONS=    1853
 UBUDSV SAVING "      ZETASRF  1" ON UNIT 55 AT TIME STEP 52, STRESS PERIOD    1

 HEAD WILL BE SAVED ON UNIT   51 AT END OF TIME STEP   52, STRESS PERIOD    1
 
 SOLVING FOR HEAD 
                                                   Max.-Head-Change                         Max.-Flux-Residual
  Residual-Control   Outer-Iter.   Inner-Iter.     Column Row Layer    Maximum-Head-Change  Column Row Layer    Maximum-Flux-Residual          L2-NORM 
          0                 1           2            43   43     1       0.1570296942E-02      53   14    1        -0.4096841967E+00      0.4619772064E+01
          0                 2           1            42   18     2       0.1284466331E-03      20   16    2         0.6442287524E-02      0.1169128618E+00
          0                 3           1            24   21     1       0.6850162756E-04      21   20    1         0.3639859508E-02      0.7940256691E-01
          0                 4           1            34   22     2       0.6818956190E-04      19   21    2         0.2832915755E-02      0.6873524943E-01
          0                 5           1            30   28     2       0.5359852933E-04      45   32    1         0.2589505713E-02      0.6123541674E-01
          0                 6           1            31   29     2       0.6029188333E-04      32   28    2         0.2383021325E-02      0.5484135482E-01
          0                 7           1            30   30     2       0.4803737315E-04      31   29    2         0.2241779857E-02      0.4943641369E-01
          0                 8           1            31   29     2       0.5061623865E-04      31   29    2         0.2068549843E-02      0.4450431735E-01
          0                 9           1            30   30     2       0.4089867919E-04      31   29    2         0.1899912218E-02      0.4022951465E-01
          0                10           1            30   30     2       0.4141437143E-04      34   30    2         0.1731292674E-02      0.3628386516E-01
                                                   Max.-Head-Change                         Max.-Flux-Residual
  Residual-Control   Outer-Iter.   Inner-Iter.     Column Row Layer    Maximum-Head-Change  Column Row Layer    Maximum-Flux-Residual          L2-NORM 
          0                11           1            30   30     2       0.3412407473E-04      45   32    1         0.1587853234E-02      0.3282347157E-01
          0                12           1            30   30     2       0.3362910218E-04      35   29    2         0.1434339978E-02      0.2963519958E-01
          0                13           1            31   31     2       0.2822627924E-04      45   32    1         0.1338518928E-02      0.2681709186E-01
          0                14           1            30   30     2       0.2735766102E-04      36   32    2         0.1189646667E-02      0.2423012314E-01
          0                15           1            31   31     2       0.2318795145E-04      45   32    1         0.1122574959E-02      0.2192828353E-01
          0                16           1            30   30     2       0.2235183813E-04      36   32    2         0.9908236316E-03      0.1982365186E-01
          0                17           1            31   31     2       0.1895103192E-04      45   32    1         0.9371518111E-03      0.1794071612E-01
          0                18           1            30   30     2       0.1834711454E-04      36   32    2         0.8230457776E-03      0.1622532748E-01
          0                19           1            31   31     2       0.1542743748E-04      45   32    1         0.7790884356E-03      0.1468382476E-01
          0                20           1            30   30     2       0.1512007042E-04      36   32    2         0.6819718216E-03      0.1328374940E-01
                                                   Max.-Head-Change                         Max.-Flux-Residual
  Residual-Control   Outer-Iter.   Inner-Iter.     Column Row Layer    Maximum-Head-Change  Column Row Layer    Maximum-Flux-Residual          L2-NORM 
          0                21           1            32   32     2       0.1255226219E-04      45   32    1         0.6450361308E-03      0.1202117559E-01
          0                22           1            30   30     2       0.1250244252E-04      42   35    1         0.5707844105E-03      0.1087708489E-01
          0                23           1            32   32     2       0.1019402410E-04      45   32    1         0.5318951648E-03      0.9842595852E-02
          0                24           1            29   31     2       0.1036778433E-04      42   35    1         0.4780806746E-03      0.8906729710E-02
          0                25           1            32   32     2       0.8266332856E-05      45   32    1         0.4368095921E-03      0.8058880108E-02

    ------------------------------------------------
       NWT REQUIRED           25 OUTER ITERATIONS 
       AND A TOTAL OF         26 INNER ITERATIONS.
    ------------------------------------------------

 OUTPUT CONTROL FOR STRESS PERIOD    1   TIME STEP   53
    SAVE HEAD FOR ALL LAYERS
 SOLVING FOR ZETA FOR LAYER     1 ZONE     2

     945 UPPER PART EQS.       940 LOWER PART EQS.    BAND WIDTH + 1 =   46
 STRESS PERIOD=  1 TIMESTEP= 53 LAYER=  1 ZONE=  2 ACTIVE CELLS= 1885 NUMBER OF EQUATIONS=    1885
 UBUDSV SAVING "      ZETASRF  1" ON UNIT 55 AT TIME STEP 53, STRESS PERIOD    1

 HEAD WILL BE SAVED ON UNIT   51 AT END OF TIME STEP   53, STRESS PERIOD    1
 
 SOLVING FOR HEAD 
                                                   Max.-Head-Change                         Max.-Flux-Residual
  Residual-Control   Outer-Iter.   Inner-Iter.     Column Row Layer    Maximum-Head-Change  Column Row Layer    Maximum-Flux-Residual          L2-NORM 
          0                 1           2            43   43     1       0.1571523774E-02       9   48    1         0.3640408616E+00      0.4871948475E+01
          0                 2           1            43   17     2       0.1483416797E-03      44   16    2         0.7104743735E-02      0.1226398243E+00
          0                 3           1            21   20     1       0.7091331911E-04      21   20    1         0.3901103350E-02      0.8505074895E-01
          0                 4           1            24   22     2       0.7003193102E-04      19   21    2         0.2980195079E-02      0.7300556225E-01
          0                 5           1            29   26     1       0.5459116378E-04      31   25    2         0.2583525295E-02      0.6476447357E-01
          0                 6           1            29   28     1       0.6143650059E-04      33   27    2         0.2431789250E-02      0.5791258579E-01
          0                 7           1            31   29     2       0.5027006244E-04      31   29    2         0.2335163883E-02      0.5215850422E-01
          0                 8           1            31   29     2       0.5215363723E-04      31   29    2         0.2149976025E-02      0.4696950091E-01
          0                 9           1            30   30     2       0.4333188126E-04      31   29    2         0.1995262409E-02      0.4244527173E-01
          0                10           1            30   30     2       0.4314129426E-04      30   30    2         0.1813370707E-02      0.3829648136E-01
                                                   Max.-Head-Change                         Max.-Flux-Residual
  Residual-Control   Outer-Iter.   Inner-Iter.     Column Row Layer    Maximum-Head-Change  Column Row Layer    Maximum-Flux-Residual          L2-NORM 
          0                11           1            30   30     2       0.3609383557E-04      31   29    2         0.1659495037E-02      0.3463845667E-01
          0                12           1            30   30     2       0.3535117283E-04      30   30    2         0.1504996883E-02      0.3128603997E-01
          0                13           1            31   31     2       0.2973100462E-04      31   29    2         0.1366516543E-02      0.2830468921E-01
          0                14           1            30   30     2       0.2895936221E-04      30   30    2         0.1240300410E-02      0.2558316654E-01
          0                15           1            31   31     2       0.2430766991E-04      32   32    2         0.1126744982E-02      0.2314784640E-01
          0                16           1            30   30     2       0.2379489594E-04      36   32    2         0.1024086102E-02      0.2093143164E-01
          0                17           1            31   31     2       0.1979759402E-04      32   32    2         0.9283520070E-03      0.1893910090E-01
          0                18           1            30   30     2       0.1958494827E-04      36   32    2         0.8479262406E-03      0.1713064927E-01
          0                19           1            31   31     2       0.1607607454E-04      33   31    2         0.7651766308E-03      0.1550027135E-01
          0                20           1            30   30     2       0.1616440014E-04      36   32    2         0.7004286787E-03      0.1402347290E-01
                                                   Max.-Head-Change                         Max.-Flux-Residual
  Residual-Control   Outer-Iter.   Inner-Iter.     Column Row Layer    Maximum-Head-Change  Column Row Layer    Maximum-Flux-Residual          L2-NORM 
          0                21           1            32   32     2       0.1304018823E-04      33   31    2         0.6319212985E-03      0.1268849808E-01
          0                22           1            30   30     2       0.1336826047E-04      36   32    2         0.5773073970E-03      0.1148127325E-01
          0                23           1            32   32     2       0.1057764999E-04      33   31    2         0.5217702520E-03      0.1038775299E-01
          0                24           1            30   30     2       0.1107193787E-04      36   32    2         0.4747842993E-03      0.9400080404E-02
          0                25           1            32   32     2       0.8572923491E-05      33   31    2         0.4305974714E-03      0.8504072551E-02

    ------------------------------------------------
       NWT REQUIRED           25 OUTER ITERATIONS 
       AND A TOTAL OF         26 INNER ITERATIONS.
    ------------------------------------------------

 OUTPUT CONTROL FOR STRESS PERIOD    1   TIME STEP   54
    SAVE HEAD FOR ALL LAYERS
 SOLVING FOR ZETA FOR LAYER     1 ZONE     2

     921 UPPER PART EQS.       940 LOWER PART EQS.    BAND WIDTH + 1 =   44
 STRESS PERIOD=  1 TIMESTEP= 54 LAYER=  1 ZONE=  2 ACTIVE CELLS= 1861 NUMBER OF EQUATIONS=    1861
 UBUDSV SAVING "      ZETASRF  1" ON UNIT 55 AT TIME STEP 54, STRESS PERIOD    1

 HEAD WILL BE SAVED ON UNIT   51 AT END OF TIME STEP   54, STRESS PERIOD    1
 
 SOLVING FOR HEAD 
                                                   Max.-Head-Change                         Max.-Flux-Residual
  Residual-Control   Outer-Iter.   Inner-Iter.     Column Row Layer    Maximum-Head-Change  Column Row Layer    Maximum-Flux-Residual          L2-NORM 
          0                 1           2            42   42     1       0.1549997269E-02      53   14    1        -0.4308213499E+00      0.4847124275E+01
          0                 2           1            42   18     2       0.1255947403E-03      20   16    2         0.6273234152E-02      0.1128970150E+00
          0                 3           1            38   21     1       0.6628357181E-04      21   20    1         0.3528464307E-02      0.7615047683E-01
          0                 4           1            34   22     2       0.6513689197E-04      20   24    2         0.2692653254E-02      0.6588038377E-01
          0                 5           1            30   28     2       0.5223769362E-04      30   26    2         0.2407629099E-02      0.5862152533E-01
          0                 6           1            31   29     2       0.5706568600E-04      32   28    2         0.2280301012E-02      0.5252392528E-01
          0                 7           1            30   30     2       0.4692907274E-04      31   29    2         0.2149891512E-02      0.4731502510E-01
          0                 8           1            30   30     2       0.4767518470E-04      31   29    2         0.1979743716E-02      0.4260907928E-01
          0                 9           1            30   30     2       0.3998532982E-04      31   29    2         0.1819571380E-02      0.3849941935E-01
          0                10           1            30   30     2       0.3893501113E-04      30   30    2         0.1654919643E-02      0.3473236432E-01
                                                   Max.-Head-Change                         Max.-Flux-Residual
  Residual-Control   Outer-Iter.   Inner-Iter.     Column Row Layer    Maximum-Head-Change  Column Row Layer    Maximum-Flux-Residual          L2-NORM 
          0                11           1            30   30     2       0.3335653810E-04      31   29    2         0.1508039688E-02      0.3141078492E-01
          0                12           1            30   30     2       0.3161710396E-04      30   30    2         0.1367480348E-02      0.2836420690E-01
          0                13           1            31   31     2       0.2755858815E-04      31   29    2         0.1240233808E-02      0.2566153204E-01
          0                14           1            30   30     2       0.2571536883E-04      36   32    2         0.1125784213E-02      0.2318805040E-01
          0                15           1            31   31     2       0.2260158578E-04      32   32    2         0.1023111644E-02      0.2098268853E-01
          0                16           1            30   30     2       0.2103109181E-04      36   32    2         0.9360274618E-03      0.1896988958E-01
          0                17           1            31   31     2       0.1842824404E-04      32   32    2         0.8436382309E-03      0.1716739283E-01
          0                18           1            30   30     2       0.1728915860E-04      36   32    2         0.7762361605E-03      0.1552678698E-01
          0                19           1            31   31     2       0.1496222641E-04      40   32    2         0.6989026576E-03      0.1405213518E-01
          0                20           1            30   30     2       0.1427657356E-04      36   32    2         0.6421538496E-03      0.1271314007E-01
                                                   Max.-Head-Change                         Max.-Flux-Residual
  Residual-Control   Outer-Iter.   Inner-Iter.     Column Row Layer    Maximum-Head-Change  Column Row Layer    Maximum-Flux-Residual          L2-NORM 
          0                21           1            32   32     2       0.1212174625E-04      40   32    2         0.5782039235E-03      0.1150601279E-01
          0                22           1            30   30     2       0.1183226319E-04      36   32    2         0.5299212274E-03      0.1041183849E-01
          0                23           1            32   32     2       0.9812734423E-05      40   32    2         0.4766510126E-03      0.9423177619E-02

    ------------------------------------------------
       NWT REQUIRED           23 OUTER ITERATIONS 
       AND A TOTAL OF         24 INNER ITERATIONS.
    ------------------------------------------------

 OUTPUT CONTROL FOR STRESS PERIOD    1   TIME STEP   55
    SAVE HEAD FOR ALL LAYERS
 SOLVING FOR ZETA FOR LAYER     1 ZONE     2

     953 UPPER PART EQS.       940 LOWER PART EQS.    BAND WIDTH + 1 =   46
 STRESS PERIOD=  1 TIMESTEP= 55 LAYER=  1 ZONE=  2 ACTIVE CELLS= 1893 NUMBER OF EQUATIONS=    1893
 UBUDSV SAVING "      ZETASRF  1" ON UNIT 55 AT TIME STEP 55, STRESS PERIOD    1

 HEAD WILL BE SAVED ON UNIT   51 AT END OF TIME STEP   55, STRESS PERIOD    1
 
 SOLVING FOR HEAD 
                                                   Max.-Head-Change                         Max.-Flux-Residual
  Residual-Control   Outer-Iter.   Inner-Iter.     Column Row Layer    Maximum-Head-Change  Column Row Layer    Maximum-Flux-Residual          L2-NORM 
          0                 1           2            43   43     1       0.1550318004E-02      52   19    1        -0.5273315523E+00      0.4952160588E+01
          0                 2           1            43   17     2       0.1462159898E-03      44   16    2         0.6984181295E-02      0.1197554256E+00
          0                 3           1            21   20     1       0.6933993342E-04      52   17    1         0.3822668154E-02      0.8312793770E-01
          0                 4           1            24   22     2       0.6954328285E-04      49   20    1         0.3074643171E-02      0.7131464775E-01
          0                 5           1            30   26     2       0.5305481084E-04      31   25    2         0.2540322830E-02      0.6330287338E-01
          0                 6           1            29   28     1       0.6164091492E-04      32   28    2         0.2383717928E-02      0.5654652113E-01
          0                 7           1            31   29     2       0.4829193477E-04      31   29    2         0.2284657839E-02      0.5092932352E-01
          0                 8           1            30   30     2       0.5253050449E-04      31   29    2         0.2105550332E-02      0.4581110127E-01
          0                 9           1            30   30     2       0.4127779791E-04      31   29    2         0.1943033412E-02      0.4139089429E-01
          0                10           1            30   30     2       0.4334900388E-04      31   29    2         0.1773176214E-02      0.3731456427E-01
                                                   Max.-Head-Change                         Max.-Flux-Residual
  Residual-Control   Outer-Iter.   Inner-Iter.     Column Row Layer    Maximum-Head-Change  Column Row Layer    Maximum-Flux-Residual          L2-NORM 
          0                11           1            30   30     2       0.3433877450E-04      31   29    2         0.1611205160E-02      0.3374463492E-01
          0                12           1            30   30     2       0.3545153601E-04      30   30    2         0.1469464764E-02      0.3045453915E-01
          0                13           1            31   31     2       0.2831869637E-04      31   29    2         0.1323508565E-02      0.2754509506E-01
          0                14           1            30   30     2       0.2886765826E-04      30   30    2         0.1209343030E-02      0.2487855503E-01
          0                15           1            31   31     2       0.2320149787E-04      32   32    2         0.1089073472E-02      0.2250875648E-01
          0                16           1            30   30     2       0.2359113415E-04      30   30    2         0.9931132297E-03      0.2034002663E-01
          0                17           1            31   31     2       0.1892889432E-04      32   32    2         0.8957779244E-03      0.1840476919E-01
          0                18           1            30   30     2       0.1934231772E-04      30   30    2         0.8151347121E-03      0.1663785380E-01
          0                19           1            31   31     2       0.1539914934E-04      33   31    2         0.7365870244E-03      0.1505565611E-01
          0                20           1            30   30     2       0.1590270346E-04      30   30    2         0.6691350375E-03      0.1361429262E-01
                                                   Max.-Head-Change                         Max.-Flux-Residual
  Residual-Control   Outer-Iter.   Inner-Iter.     Column Row Layer    Maximum-Head-Change  Column Row Layer    Maximum-Flux-Residual          L2-NORM 
          0                21           1            31   31     2       0.1250420185E-04      33   31    2         0.6066110095E-03      0.1231972320E-01
          0                22           1            30   30     2       0.1310359443E-04      30   30    2         0.5494252184E-03      0.1114272329E-01
          0                23           1            32   32     2       0.1015764982E-04      46   19    1         0.5037262718E-03      0.1008291891E-01
          0                24           1            30   30     2       0.1081421028E-04      30   30    2         0.4512016903E-03      0.9120964413E-02
          0                25           1            32   32     2       0.8244966386E-05      46   19    1         0.4227977246E-03      0.8253032402E-02

    ------------------------------------------------
       NWT REQUIRED           25 OUTER ITERATIONS 
       AND A TOTAL OF         26 INNER ITERATIONS.
    ------------------------------------------------

 OUTPUT CONTROL FOR STRESS PERIOD    1   TIME STEP   56
    SAVE HEAD FOR ALL LAYERS
 SOLVING FOR ZETA FOR LAYER     1 ZONE     2

     921 UPPER PART EQS.       932 LOWER PART EQS.    BAND WIDTH + 1 =   44
 STRESS PERIOD=  1 TIMESTEP= 56 LAYER=  1 ZONE=  2 ACTIVE CELLS= 1853 NUMBER OF EQUATIONS=    1853
 UBUDSV SAVING "      ZETASRF  1" ON UNIT 55 AT TIME STEP 56, STRESS PERIOD    1

 HEAD WILL BE SAVED ON UNIT   51 AT END OF TIME STEP   56, STRESS PERIOD    1
 
 SOLVING FOR HEAD 
                                                   Max.-Head-Change                         Max.-Flux-Residual
  Residual-Control   Outer-Iter.   Inner-Iter.     Column Row Layer    Maximum-Head-Change  Column Row Layer    Maximum-Flux-Residual          L2-NORM 
          0                 1           2            41   41     1       0.1520169102E-02      53   14    1        -0.4511001482E+00      0.4505447030E+01
          0                 2           1            42   18     2       0.1055560435E-03      20   16    2         0.5344160698E-02      0.1018859803E+00
          0                 3           1            24   21     1       0.5877238720E-04      21   20    1         0.3057683341E-02      0.6544321285E-01
          0                 4           1            33   23     2       0.6020095498E-04      20   24    2         0.2353813125E-02      0.5676503828E-01
          0                 5           1            30   28     2       0.4710986628E-04      30   26    2         0.2148595042E-02      0.5052659291E-01
          0                 6           1            31   29     2       0.5166618981E-04      32   28    2         0.2035414079E-02      0.4531081618E-01
          0                 7           1            30   30     2       0.4119749632E-04      31   29    2         0.1881116634E-02      0.4076906910E-01
          0                 8           1            31   29     2       0.4195165018E-04      31   29    2         0.1732715465E-02      0.3670899345E-01
          0                 9           1            30   30     2       0.3476371657E-04      31   29    2         0.1575474636E-02      0.3314241994E-01
          0                10           1            30   30     2       0.3372823821E-04      34   30    2         0.1434175183E-02      0.2989482352E-01
                                                   Max.-Head-Change                         Max.-Flux-Residual
  Residual-Control   Outer-Iter.   Inner-Iter.     Column Row Layer    Maximum-Head-Change  Column Row Layer    Maximum-Flux-Residual          L2-NORM 
          0                11           1            30   30     2       0.2893314806E-04      31   29    2         0.1301034363E-02      0.2702499201E-01
          0                12           1            30   30     2       0.2715436492E-04      35   29    2         0.1180863056E-02      0.2440264431E-01
          0                13           1            31   31     2       0.2386653148E-04      31   29    2         0.1069294222E-02      0.2207335789E-01
          0                14           1            30   30     2       0.2202563957E-04      35   29    2         0.9731451642E-03      0.1994641647E-01
          0                15           1            31   31     2       0.1955603697E-04      32   32    2         0.8801113850E-03      0.1804713544E-01
          0                16           1            30   31     1       0.1801048576E-04      36   32    2         0.8078310922E-03      0.1631721403E-01
          0                17           1            31   31     2       0.1592643373E-04      40   32    2         0.7269592442E-03      0.1476516212E-01
          0                18           1            30   31     1       0.1482075098E-04      36   32    2         0.6706519479E-03      0.1335552450E-01
          0                19           1            31   31     2       0.1291013419E-04      40   32    2         0.6042412507E-03      0.1208588555E-01
          0                20           1            30   30     2       0.1225694065E-04      36   32    2         0.5554377610E-03      0.1093541046E-01
                                                   Max.-Head-Change                         Max.-Flux-Residual
  Residual-Control   Outer-Iter.   Inner-Iter.     Column Row Layer    Maximum-Head-Change  Column Row Layer    Maximum-Flux-Residual          L2-NORM 
          0                21           1            32   32     2       0.1043359778E-04      40   32    2         0.5004965373E-03      0.9896072182E-02
          0                22           1            30   30     2       0.1018121416E-04      36   32    2         0.4588562597E-03      0.8955793372E-02
          0                23           1            32   32     2       0.8433112298E-05      45   32    1         0.4134735040E-03      0.8104532775E-02

    ------------------------------------------------
       NWT REQUIRED           23 OUTER ITERATIONS 
       AND A TOTAL OF         24 INNER ITERATIONS.
    ------------------------------------------------

 OUTPUT CONTROL FOR STRESS PERIOD    1   TIME STEP   57
    SAVE HEAD FOR ALL LAYERS
 SOLVING FOR ZETA FOR LAYER     1 ZONE     2

     961 UPPER PART EQS.       956 LOWER PART EQS.    BAND WIDTH + 1 =   46
 STRESS PERIOD=  1 TIMESTEP= 57 LAYER=  1 ZONE=  2 ACTIVE CELLS= 1917 NUMBER OF EQUATIONS=    1917
 UBUDSV SAVING "      ZETASRF  1" ON UNIT 55 AT TIME STEP 57, STRESS PERIOD    1

 HEAD WILL BE SAVED ON UNIT   51 AT END OF TIME STEP   57, STRESS PERIOD    1
 
 SOLVING FOR HEAD 
                                                   Max.-Head-Change                         Max.-Flux-Residual
  Residual-Control   Outer-Iter.   Inner-Iter.     Column Row Layer    Maximum-Head-Change  Column Row Layer    Maximum-Flux-Residual          L2-NORM 
          0                 1           2            43   43     1       0.1540972630E-02      41   10    1        -0.5469897335E+00      0.5223582970E+01
          0                 2           1            43   17     2       0.1605924641E-03      18   14    2         0.7758669791E-02      0.1262137209E+00
          0                 3           1            21   20     1       0.7098004913E-04      52   21    1         0.4134423269E-02      0.8893231357E-01
          0                 4           1            23   21     2       0.7449548368E-04      49   20    1         0.3573810633E-02      0.7573354342E-01
          0                 5           1            30   25     1       0.5337432695E-04      46   23    1         0.2928782283E-02      0.6689321019E-01
          0                 6           1            30   27     1       0.6538904850E-04      49   20    1         0.2657041798E-02      0.5966081142E-01
          0                 7           1            31   29     2       0.4891178230E-04      46   23    1         0.2393449963E-02      0.5363563774E-01
          0                 8           1            31   30     1       0.5670438064E-04      31   29    2         0.2193113705E-02      0.4824759148E-01
          0                 9           1            30   30     2       0.4182664751E-04      31   29    2         0.2035985255E-02      0.4353120139E-01
          0                10           1            30   30     2       0.4719075638E-04      31   29    2         0.1860082689E-02      0.3925579488E-01
                                                   Max.-Head-Change                         Max.-Flux-Residual
  Residual-Control   Outer-Iter.   Inner-Iter.     Column Row Layer    Maximum-Head-Change  Column Row Layer    Maximum-Flux-Residual          L2-NORM 
          0                11           1            30   30     2       0.3463627037E-04      46   23    1         0.1739338102E-02      0.3545835838E-01
          0                12           1            30   30     2       0.3886861438E-04      30   30    2         0.1545334891E-02      0.3200854496E-01
          0                13           1            31   31     2       0.2840196965E-04      46   23    1         0.1485830577E-02      0.2891755737E-01
          0                14           1            30   30     2       0.3176478452E-04      30   30    2         0.1272972487E-02      0.2612148132E-01
          0                15           1            31   31     2       0.2316033816E-04      46   23    1         0.1259793583E-02      0.2360971549E-01
          0                16           1            31   31     2       0.2601104372E-04      30   30    2         0.1045360552E-02      0.2133490211E-01
          0                17           1            31   31     2       0.1882706454E-04      46   23    1         0.1059435782E-02      0.1928843812E-01
          0                18           1            31   31     2       0.2133542253E-04      30   30    2         0.8574501381E-03      0.1743423994E-01
          0                19           1            31   31     2       0.1528204790E-04      46   23    1         0.8835190375E-03      0.1576442726E-01
          0                20           1            31   31     2       0.1752382780E-04      31   29    2         0.7036125299E-03      0.1425132354E-01
                                                   Max.-Head-Change                         Max.-Flux-Residual
  Residual-Control   Outer-Iter.   Inner-Iter.     Column Row Layer    Maximum-Head-Change  Column Row Layer    Maximum-Flux-Residual          L2-NORM 
          0                21           1            31   31     2       0.1239619687E-04      46   23    1         0.7308356527E-03      0.1288755091E-01
          0                22           1            31   31     2       0.1440729862E-04      31   29    2         0.5780205236E-03      0.1165176563E-01
          0                23           1            32   32     2       0.1005631278E-04      46   23    1         0.5998704859E-03      0.1053722201E-01
          0                24           1            31   31     2       0.1185262516E-04      31   29    2         0.4750615915E-03      0.9527318167E-02
          0                25           1            30   31     1       0.8165663916E-05      46   23    1         0.4888066064E-03      0.8616050976E-02

    ------------------------------------------------
       NWT REQUIRED           25 OUTER ITERATIONS 
       AND A TOTAL OF         26 INNER ITERATIONS.
    ------------------------------------------------

 OUTPUT CONTROL FOR STRESS PERIOD    1   TIME STEP   58
    SAVE HEAD FOR ALL LAYERS
 SOLVING FOR ZETA FOR LAYER     1 ZONE     2

     921 UPPER PART EQS.       932 LOWER PART EQS.    BAND WIDTH + 1 =   44
 STRESS PERIOD=  1 TIMESTEP= 58 LAYER=  1 ZONE=  2 ACTIVE CELLS= 1853 NUMBER OF EQUATIONS=    1853
 UBUDSV SAVING "      ZETASRF  1" ON UNIT 55 AT TIME STEP 58, STRESS PERIOD    1

 HEAD WILL BE SAVED ON UNIT   51 AT END OF TIME STEP   58, STRESS PERIOD    1
 
 SOLVING FOR HEAD 
                                                   Max.-Head-Change                         Max.-Flux-Residual
  Residual-Control   Outer-Iter.   Inner-Iter.     Column Row Layer    Maximum-Head-Change  Column Row Layer    Maximum-Flux-Residual          L2-NORM 
          0                 1           2            41   41     1       0.1499320404E-02      48   53    1        -0.4675250048E+00      0.4547556501E+01
          0                 2           1            42   18     2       0.9360281436E-04      20   16    2         0.4763192863E-02      0.9558015353E-01
          0                 3           1            24   21     1       0.5246227929E-04      21   20    1         0.2762436260E-02      0.5906616727E-01
          0                 4           1            33   24     1       0.5788129459E-04      34   22    2         0.2157117539E-02      0.5119302540E-01
          0                 5           1            30   28     2       0.4309820307E-04      31   29    2         0.1996332753E-02      0.4551455879E-01
          0                 6           1            31   29     2       0.4904925526E-04      32   28    2         0.1871601096E-02      0.4082607520E-01
          0                 7           1            30   30     2       0.3706168758E-04      31   29    2         0.1713637873E-02      0.3666212625E-01
          0                 8           1            31   29     2       0.3902460137E-04      31   29    2         0.1573192079E-02      0.3300251852E-01
          0                 9           1            30   30     2       0.3097326552E-04      31   29    2         0.1420856388E-02      0.2975565669E-01
          0                10           1            30   30     2       0.3099841609E-04      31   29    2         0.1293767642E-02      0.2683687678E-01
                                                   Max.-Head-Change                         Max.-Flux-Residual
  Residual-Control   Outer-Iter.   Inner-Iter.     Column Row Layer    Maximum-Head-Change  Column Row Layer    Maximum-Flux-Residual          L2-NORM 
          0                11           1            30   30     2       0.2567818731E-04      31   29    2         0.1168333078E-02      0.2423929156E-01
          0                12           1            30   30     2       0.2480248656E-04      34   30    2         0.1060656610E-02      0.2188779117E-01
          0                13           1            31   31     2       0.2113078596E-04      31   29    2         0.9588161445E-03      0.1978715956E-01
          0                14           1            30   31     1       0.2005014962E-04      35   29    2         0.8737136353E-03      0.1788220036E-01
          0                15           1            31   31     2       0.1730164702E-04      31   29    2         0.7866080005E-03      0.1617320482E-01
          0                16           1            30   31     1       0.1637462424E-04      35   29    2         0.7191708543E-03      0.1462476612E-01
          0                17           1            31   31     2       0.1408684535E-04      32   32    2         0.6487445977E-03      0.1323018134E-01
          0                18           1            30   31     1       0.1346579137E-04      36   32    2         0.5957167308E-03      0.1196853125E-01
          0                19           1            31   31     2       0.1141681373E-04      32   32    2         0.5352862884E-03      0.1082858297E-01
          0                20           1            30   31     1       0.1113327760E-04      36   32    2         0.4930806267E-03      0.9798762358E-02
          0                21           1            31   31     2       0.9220916668E-05      33   31    2         0.4424785825E-03      0.8865956596E-02

    ------------------------------------------------
       NWT REQUIRED           21 OUTER ITERATIONS 
       AND A TOTAL OF         22 INNER ITERATIONS.
    ------------------------------------------------

 OUTPUT CONTROL FOR STRESS PERIOD    1   TIME STEP   59
    SAVE HEAD FOR ALL LAYERS
 SOLVING FOR ZETA FOR LAYER     1 ZONE     2

     969 UPPER PART EQS.       964 LOWER PART EQS.    BAND WIDTH + 1 =   46
 STRESS PERIOD=  1 TIMESTEP= 59 LAYER=  1 ZONE=  2 ACTIVE CELLS= 1933 NUMBER OF EQUATIONS=    1933
 UBUDSV SAVING "      ZETASRF  1" ON UNIT 55 AT TIME STEP 59, STRESS PERIOD    1

 HEAD WILL BE SAVED ON UNIT   51 AT END OF TIME STEP   59, STRESS PERIOD    1
 
 SOLVING FOR HEAD 
                                                   Max.-Head-Change                         Max.-Flux-Residual
  Residual-Control   Outer-Iter.   Inner-Iter.     Column Row Layer    Maximum-Head-Change  Column Row Layer    Maximum-Flux-Residual          L2-NORM 
          0                 1           2            42   42     1       0.1523630140E-02      52   23    1        -0.5856681911E+00      0.5543254824E+01
          0                 2           1            43   17     2       0.1669289450E-03      18   14    2         0.7874081637E-02      0.1299944145E+00
          0                 3           1            21   20     1       0.7274931602E-04      52   41    1         0.4572121934E-02      0.9312434495E-01
          0                 4           1            23   21     2       0.7870229749E-04      49   24    1         0.3792461222E-02      0.7925736874E-01
          0                 5           1            30   25     1       0.5487534708E-04      46   23    1         0.3046980755E-02      0.6992456999E-01
          0                 6           1            30   27     1       0.6942363221E-04      49   24    1         0.2888044112E-02      0.6234612829E-01
          0                 7           1            31   29     2       0.5011126538E-04      31   29    2         0.2497709738E-02      0.5600330811E-01
          0                 8           1            31   30     1       0.6060489549E-04      49   24    1         0.2307876971E-02      0.5036883851E-01
          0                 9           1            30   30     2       0.4253506971E-04      31   29    2         0.2126903694E-02      0.4541711454E-01
          0                10           1            30   30     2       0.5080623965E-04      30   30    2         0.1940494103E-02      0.4094289155E-01
                                                   Max.-Head-Change                         Max.-Flux-Residual
  Residual-Control   Outer-Iter.   Inner-Iter.     Column Row Layer    Maximum-Head-Change  Column Row Layer    Maximum-Flux-Residual          L2-NORM 
          0                11           1            30   30     2       0.3501155123E-04      46   23    1         0.1810609119E-02      0.3695201167E-01
          0                12           1            30   30     2       0.4201137639E-04      30   30    2         0.1612906776E-02      0.3334149759E-01
          0                13           1            31   31     2       0.2847933839E-04      46   23    1         0.1546615555E-02      0.3010162980E-01
          0                14           1            30   30     2       0.3459290365E-04      30   30    2         0.1328300372E-02      0.2717140342E-01
          0                15           1            31   31     2       0.2305818283E-04      46   23    1         0.1311780475E-02      0.2453442632E-01
          0                16           1            31   31     2       0.2845990006E-04      30   30    2         0.1089732513E-02      0.2215022993E-01
          0                17           1            32   30     2       0.1862870451E-04      46   23    1         0.1103554704E-02      0.2000132180E-01
          0                18           1            31   31     2       0.2341008476E-04      30   30    2         0.8925287830E-03      0.1805865207E-01
          0                19           1            33   31     2       0.1505330595E-04      46   43    1         0.9254769299E-03      0.1630624849E-01
          0                20           1            31   31     2       0.1925824562E-04      30   30    2         0.7304139810E-03      0.1472205254E-01
                                                   Max.-Head-Change                         Max.-Flux-Residual
  Residual-Control   Outer-Iter.   Inner-Iter.     Column Row Layer    Maximum-Head-Change  Column Row Layer    Maximum-Flux-Residual          L2-NORM 
          0                21           1            33   31     2       0.1218026015E-04      46   43    1         0.7709262950E-03      0.1329238198E-01
          0                22           1            31   31     2       0.1584344033E-04      31   29    2         0.5983869435E-03      0.1199993600E-01
          0                23           1            33   31     2       0.9851952600E-05      46   43    1         0.6376828254E-03      0.1083333334E-01

    ------------------------------------------------
       NWT REQUIRED           23 OUTER ITERATIONS 
       AND A TOTAL OF         24 INNER ITERATIONS.
    ------------------------------------------------

 OUTPUT CONTROL FOR STRESS PERIOD    1   TIME STEP   60
    SAVE HEAD FOR ALL LAYERS
 SOLVING FOR ZETA FOR LAYER     1 ZONE     2

     929 UPPER PART EQS.       932 LOWER PART EQS.    BAND WIDTH + 1 =   44
 STRESS PERIOD=  1 TIMESTEP= 60 LAYER=  1 ZONE=  2 ACTIVE CELLS= 1861 NUMBER OF EQUATIONS=    1861
 UBUDSV SAVING "      ZETASRF  1" ON UNIT 55 AT TIME STEP 60, STRESS PERIOD    1

 HEAD WILL BE SAVED ON UNIT   51 AT END OF TIME STEP   60, STRESS PERIOD    1
 
 SOLVING FOR HEAD 
                                                   Max.-Head-Change                         Max.-Flux-Residual
  Residual-Control   Outer-Iter.   Inner-Iter.     Column Row Layer    Maximum-Head-Change  Column Row Layer    Maximum-Flux-Residual          L2-NORM 
          0                 1           2            39   41     1       0.1483516165E-02      52   37    1        -0.5631876635E+00      0.5433204583E+01
          0                 2           1            42   40     2       0.8784961633E-04      20   16    2         0.4419855733E-02      0.9442809659E-01
          0                 3           1            24   21     1       0.5038080758E-04      24   21    1         0.2678264810E-02      0.6032801229E-01
          0                 4           1            30   23     1       0.6006437486E-04      27   21    2         0.2168411712E-02      0.5237371785E-01
          0                 5           1            31   29     2       0.4256647331E-04      31   29    2         0.2086187977E-02      0.4663859362E-01
          0                 6           1            31   30     1       0.5175220732E-04      31   29    2         0.1907445285E-02      0.4186492328E-01
          0                 7           1            30   30     2       0.3633433185E-04      31   29    2         0.1776047980E-02      0.3761395458E-01
          0                 8           1            31   30     1       0.4194335275E-04      31   29    2         0.1609218367E-02      0.3387790027E-01
          0                 9           1            30   30     2       0.2995735092E-04      31   29    2         0.1464334882E-02      0.3052565663E-01
          0                10           1            30   30     2       0.3399561304E-04      31   29    2         0.1325675726E-02      0.2753798628E-01
                                                   Max.-Head-Change                         Max.-Flux-Residual
  Residual-Control   Outer-Iter.   Inner-Iter.     Column Row Layer    Maximum-Head-Change  Column Row Layer    Maximum-Flux-Residual          L2-NORM 
          0                11           1            30   30     2       0.2437596929E-04      46   39    1         0.1237119335E-02      0.2484630961E-01
          0                12           1            30   30     2       0.2772719650E-04      30   30    2         0.1087405316E-02      0.2243279770E-01
          0                13           1            31   31     2       0.1972075899E-04      46   39    1         0.1061874163E-02      0.2025456311E-01
          0                14           1            30   30     2       0.2272256716E-04      35   29    2         0.8920032591E-03      0.1829459845E-01
          0                15           1            31   31     2       0.1594153779E-04      46   39    1         0.9024887157E-03      0.1652483821E-01
          0                16           1            30   31     1       0.1868463701E-04      35   29    2         0.7334324257E-03      0.1492819419E-01
          0                17           1            31   31     2       0.1287543732E-04      45   28    1         0.7699732594E-03      0.1348688515E-01
          0                18           1            30   31     1       0.1539012087E-04      35   29    2         0.6019262972E-03      0.1218380503E-01
          0                19           1            31   31     2       0.1039936506E-04      45   28    1         0.6515157723E-03      0.1100841993E-01
          0                20           1            29   31     2       0.1268451422E-04      41   28    1         0.4953101595E-03      0.9943886242E-02
          0                21           1            32   32     2       0.8404700226E-05      45   28    1         0.5467799921E-03      0.8984711138E-02

    ------------------------------------------------
       NWT REQUIRED           21 OUTER ITERATIONS 
       AND A TOTAL OF         22 INNER ITERATIONS.
    ------------------------------------------------

 OUTPUT CONTROL FOR STRESS PERIOD    1   TIME STEP   61
    SAVE HEAD FOR ALL LAYERS
 SOLVING FOR ZETA FOR LAYER     1 ZONE     2

     973 UPPER PART EQS.       988 LOWER PART EQS.    BAND WIDTH + 1 =   46
 STRESS PERIOD=  1 TIMESTEP= 61 LAYER=  1 ZONE=  2 ACTIVE CELLS= 1961 NUMBER OF EQUATIONS=    1961
 UBUDSV SAVING "      ZETASRF  1" ON UNIT 55 AT TIME STEP 61, STRESS PERIOD    1

 HEAD WILL BE SAVED ON UNIT   51 AT END OF TIME STEP   61, STRESS PERIOD    1
 
 SOLVING FOR HEAD 
                                                   Max.-Head-Change                         Max.-Flux-Residual
  Residual-Control   Outer-Iter.   Inner-Iter.     Column Row Layer    Maximum-Head-Change  Column Row Layer    Maximum-Flux-Residual          L2-NORM 
          0                 1           2            32   44     1       0.1505830080E-02      29   10    1        -0.6605470585E+00      0.6619664302E+01
          0                 2           1            43   17     2       0.1748192435E-03      18   14    2         0.7545529863E-02      0.1439463426E+00
          0                 3           1            23   20     1       0.8311276250E-04      52   33    1         0.4821967179E-02      0.1091405577E+00
          0                 4           1            24   22     2       0.9443742707E-04      49   32    1         0.4889346207E-02      0.9354191046E-01
          0                 5           1            30   26     2       0.6421678667E-04      46   35    1         0.3777020285E-02      0.8268869838E-01
          0                 6           1            29   28     1       0.8548499889E-04      49   32    1         0.3811098737E-02      0.7379414046E-01
          0                 7           1            31   29     2       0.5798016222E-04      46   35    1         0.3242469406E-02      0.6624694092E-01
          0                 8           1            31   30     1       0.7516643582E-04      49   32    1         0.3069537431E-02      0.5956044227E-01
          0                 9           1            30   30     2       0.4867602405E-04      46   35    1         0.2833763864E-02      0.5363379398E-01
          0                10           1            30   30     2       0.6326149057E-04      49   32    1         0.2478895528E-02      0.4830000484E-01
                                                   Max.-Head-Change                         Max.-Flux-Residual
  Residual-Control   Outer-Iter.   Inner-Iter.     Column Row Layer    Maximum-Head-Change  Column Row Layer    Maximum-Flux-Residual          L2-NORM 
          0                11           1            31   31     2       0.3971866983E-04      46   35    1         0.2471489512E-02      0.4351391873E-01
          0                12           1            30   30     2       0.5247205858E-04      49   32    1         0.1993054065E-02      0.3920357196E-01
          0                13           1            31   31     2       0.3209924934E-04      46   35    1         0.2136262129E-02      0.3531921271E-01
          0                14           1            30   30     2       0.4325352410E-04      49   32    1         0.1593379345E-02      0.3182102724E-01
          0                15           1            31   31     2       0.2582939458E-04      46   35    1         0.1826679969E-02      0.2866385955E-01
          0                16           1            30   30     2       0.3555467934E-04      30   30    2         0.1273996588E-02      0.2582094462E-01
          0                17           1            32   32     2       0.2077996913E-04      46   35    1         0.1545183780E-02      0.2325401508E-01
          0                18           1            30   30     2       0.2917961838E-04      37   31    2         0.1039589674E-02      0.2094263195E-01
          0                19           1            32   32     2       0.1671921092E-04      46   35    1         0.1293749189E-02      0.1885584307E-01
          0                20           1            30   30     2       0.2392397137E-04      43   34    1         0.8553825760E-03      0.1697669300E-01
                                                   Max.-Head-Change                         Max.-Flux-Residual
  Residual-Control   Outer-Iter.   Inner-Iter.     Column Row Layer    Maximum-Head-Change  Column Row Layer    Maximum-Flux-Residual          L2-NORM 
          0                21           1            32   32     2       0.1344535911E-04      46   35    1         0.1072965107E-02      0.1528066401E-01
          0                22           1            30   30     2       0.1960043532E-04      43   34    1         0.7143657330E-03      0.1375331505E-01
          0                23           1            32   32     2       0.1080559048E-04      46   35    1         0.8820317178E-03      0.1237534671E-01
          0                24           1            30   30     2       0.1604784051E-04      43   34    1         0.5937094693E-03      0.1113441049E-01
          0                25           1            33   31     2       0.8693371100E-05      46   35    1         0.7191087792E-03      0.1001531703E-01

    ------------------------------------------------
       NWT REQUIRED           25 OUTER ITERATIONS 
       AND A TOTAL OF         26 INNER ITERATIONS.
    ------------------------------------------------

 OUTPUT CONTROL FOR STRESS PERIOD    1   TIME STEP   62
    SAVE HEAD FOR ALL LAYERS
 SOLVING FOR ZETA FOR LAYER     1 ZONE     2

     937 UPPER PART EQS.       932 LOWER PART EQS.    BAND WIDTH + 1 =   44
 STRESS PERIOD=  1 TIMESTEP= 62 LAYER=  1 ZONE=  2 ACTIVE CELLS= 1869 NUMBER OF EQUATIONS=    1869
 UBUDSV SAVING "      ZETASRF  1" ON UNIT 55 AT TIME STEP 62, STRESS PERIOD    1

 HEAD WILL BE SAVED ON UNIT   51 AT END OF TIME STEP   62, STRESS PERIOD    1
 
 SOLVING FOR HEAD 
                                                   Max.-Head-Change                         Max.-Flux-Residual
  Residual-Control   Outer-Iter.   Inner-Iter.     Column Row Layer    Maximum-Head-Change  Column Row Layer    Maximum-Flux-Residual          L2-NORM 
          0                 1           2            40   40     1       0.1467368655E-02      52   39    1        -0.4991597353E+00      0.5597010613E+01
          0                 2           1            42   42     2       0.8241275666E-04      19   17    2         0.4327536291E-02      0.8980499000E-01
          0                 3           1            38   21     1       0.4422039320E-04      21   20    1         0.2464916930E-02      0.5545212601E-01
          0                 4           1            33   24     1       0.5777871743E-04      26   22    2         0.1994169450E-02      0.4771371811E-01
          0                 5           1            31   29     2       0.3769697512E-04      31   29    2         0.1926816929E-02      0.4231408005E-01
          0                 6           1            31   30     1       0.5006945596E-04      31   29    2         0.1746374898E-02      0.3796173138E-01
          0                 7           1            31   29     2       0.3158045578E-04      31   29    2         0.1614273646E-02      0.3400701748E-01
          0                 8           1            30   30     2       0.4043047995E-04      31   29    2         0.1462977616E-02      0.3060750880E-01
          0                 9           1            30   30     2       0.2573593202E-04      31   29    2         0.1318740185E-02      0.2750818325E-01
          0                10           1            30   30     2       0.3273897048E-04      31   29    2         0.1201455217E-02      0.2479544151E-01
                                                   Max.-Head-Change                         Max.-Flux-Residual
  Residual-Control   Outer-Iter.   Inner-Iter.     Column Row Layer    Maximum-Head-Change  Column Row Layer    Maximum-Flux-Residual          L2-NORM 
          0                11           1            30   30     2       0.2076586025E-04      31   29    2         0.1070517538E-02      0.2231895114E-01
          0                12           1            30   30     2       0.2669213099E-04      30   30    2         0.9815470040E-03      0.2012995945E-01
          0                13           1            30   30     2       0.1668687091E-04      31   29    2         0.8680002879E-03      0.1813342238E-01
          0                14           1            31   31     2       0.2185171570E-04      30   30    2         0.8007931148E-03      0.1635684447E-01
          0                15           1            31   31     2       0.1339406910E-04      46   43    1         0.7228435026E-03      0.1474023329E-01
          0                16           1            31   31     2       0.1792864684E-04      30   30    2         0.6526585553E-03      0.1329426238E-01
          0                17           1            31   31     2       0.1076450998E-04      45   24    1         0.6174989504E-03      0.1198248384E-01
          0                18           1            31   31     2       0.1470786414E-04      30   30    2         0.5316708028E-03      0.1080419211E-01
          0                19           1            31   31     2       0.8656888405E-05      45   24    1         0.5238734504E-03      0.9738760244E-02

    ------------------------------------------------
       NWT REQUIRED           19 OUTER ITERATIONS 
       AND A TOTAL OF         20 INNER ITERATIONS.
    ------------------------------------------------

 OUTPUT CONTROL FOR STRESS PERIOD    1   TIME STEP   63
    SAVE HEAD FOR ALL LAYERS
 SOLVING FOR ZETA FOR LAYER     1 ZONE     2

     961 UPPER PART EQS.       972 LOWER PART EQS.    BAND WIDTH + 1 =   46
 STRESS PERIOD=  1 TIMESTEP= 63 LAYER=  1 ZONE=  2 ACTIVE CELLS= 1933 NUMBER OF EQUATIONS=    1933
 UBUDSV SAVING "      ZETASRF  1" ON UNIT 55 AT TIME STEP 63, STRESS PERIOD    1

 HEAD WILL BE SAVED ON UNIT   51 AT END OF TIME STEP   63, STRESS PERIOD    1
 
 SOLVING FOR HEAD 
                                                   Max.-Head-Change                         Max.-Flux-Residual
  Residual-Control   Outer-Iter.   Inner-Iter.     Column Row Layer    Maximum-Head-Change  Column Row Layer    Maximum-Flux-Residual          L2-NORM 
          0                 1           2            41   41     1       0.1470692852E-02      52   28    1        -0.6332135571E+00      0.5379374674E+01
          0                 2           1            43   17     2       0.1362371691E-03      18   14    2         0.6405740935E-02      0.1126074213E+00
          0                 3           1            39   20     1       0.6619885335E-04      22   19    1         0.3596052243E-02      0.8124068749E-01
          0                 4           1            24   22     2       0.6881177764E-04      13   24    1         0.2845114754E-02      0.6997440607E-01
          0                 5           1            30   26     2       0.5130434790E-04      46   27    1         0.2537755235E-02      0.6204036616E-01
          0                 6           1            29   28     1       0.6180293702E-04      29   27    2         0.2315745057E-02      0.5548966326E-01
          0                 7           1            31   29     2       0.4610267584E-04      31   29    2         0.2252568467E-02      0.4989159467E-01
          0                 8           1            31   30     1       0.5348013931E-04      31   29    2         0.2057657653E-02      0.4492184083E-01
          0                 9           1            30   30     2       0.3882050316E-04      31   29    2         0.1906202938E-02      0.4051322792E-01
          0                10           1            30   30     2       0.4469391842E-04      30   30    2         0.1738019227E-02      0.3654636701E-01
                                                   Max.-Head-Change                         Max.-Flux-Residual
  Residual-Control   Outer-Iter.   Inner-Iter.     Column Row Layer    Maximum-Head-Change  Column Row Layer    Maximum-Flux-Residual          L2-NORM 
          0                11           1            30   30     2       0.3187910389E-04      31   29    2         0.1573419816E-02      0.3298498876E-01
          0                12           1            30   30     2       0.3691942793E-04      30   30    2         0.1440840684E-02      0.2977818384E-01
          0                13           1            31   31     2       0.2591460420E-04      33   31    2         0.1288689231E-02      0.2688538846E-01
          0                14           1            30   30     2       0.3041174521E-04      30   30    2         0.1184850238E-02      0.2428026149E-01
          0                15           1            31   31     2       0.2097370839E-04      46   39    1         0.1078395908E-02      0.2192442908E-01
          0                16           1            31   31     2       0.2505384610E-04      30   30    2         0.9710796338E-03      0.1980303734E-01
          0                17           1            31   31     2       0.1693224961E-04      46   39    1         0.9118210913E-03      0.1788185211E-01
          0                18           1            31   31     2       0.2065319607E-04      30   30    2         0.7947256877E-03      0.1615185712E-01
          0                19           1            31   31     2       0.1365095745E-04      46   39    1         0.7655978044E-03      0.1458387922E-01
          0                20           1            31   31     2       0.1703356755E-04      30   30    2         0.6499486042E-03      0.1317192786E-01
                                                   Max.-Head-Change                         Max.-Flux-Residual
  Residual-Control   Outer-Iter.   Inner-Iter.     Column Row Layer    Maximum-Head-Change  Column Row Layer    Maximum-Flux-Residual          L2-NORM 
          0                21           1            33   31     2       0.1101334552E-04      46   39    1         0.6385115461E-03      0.1189157570E-01
          0                22           1            31   31     2       0.1404735269E-04      30   30    2         0.5313044641E-03      0.1073874297E-01
          0                23           1            33   31     2       0.8894819214E-05      46   39    1         0.5290692535E-03      0.9693292747E-02

    ------------------------------------------------
       NWT REQUIRED           23 OUTER ITERATIONS 
       AND A TOTAL OF         24 INNER ITERATIONS.
    ------------------------------------------------

 OUTPUT CONTROL FOR STRESS PERIOD    1   TIME STEP   64
    SAVE HEAD FOR ALL LAYERS
 SOLVING FOR ZETA FOR LAYER     1 ZONE     2

     949 UPPER PART EQS.       956 LOWER PART EQS.    BAND WIDTH + 1 =   44
 STRESS PERIOD=  1 TIMESTEP= 64 LAYER=  1 ZONE=  2 ACTIVE CELLS= 1905 NUMBER OF EQUATIONS=    1905
 UBUDSV SAVING "      ZETASRF  1" ON UNIT 55 AT TIME STEP 64, STRESS PERIOD    1

 HEAD WILL BE SAVED ON UNIT   51 AT END OF TIME STEP   64, STRESS PERIOD    1
 
 SOLVING FOR HEAD 
                                                   Max.-Head-Change                         Max.-Flux-Residual
  Residual-Control   Outer-Iter.   Inner-Iter.     Column Row Layer    Maximum-Head-Change  Column Row Layer    Maximum-Flux-Residual          L2-NORM 
          0                 1           2            32   42     1       0.1462486724E-02      10   36    1        -0.5734000040E+00      0.6128294243E+01
          0                 2           1            43   39     2       0.9659195536E-04      30   14    2         0.4961908985E-02      0.1036827080E+00
          0                 3           1            23   20     1       0.6063105419E-04      25   19    2         0.3214844948E-02      0.7455619621E-01
          0                 4           1            27   22     1       0.6867914260E-04      49   32    1         0.3292214629E-02      0.6491119792E-01
          0                 5           1            29   27     2       0.4941850430E-04      30   26    2         0.2486348340E-02      0.5776771541E-01
          0                 6           1            31   30     1       0.6270655469E-04      49   32    1         0.2638966125E-02      0.5181661881E-01
          0                 7           1            31   29     2       0.4236302113E-04      31   29    2         0.2168360761E-02      0.4654024593E-01
          0                 8           1            31   30     1       0.5453381312E-04      49   32    1         0.2120435908E-02      0.4189594414E-01
          0                 9           1            30   30     2       0.3426202798E-04      31   29    2         0.1794609955E-02      0.3768775737E-01
          0                10           1            30   30     2       0.4623063230E-04      49   32    1         0.1682012636E-02      0.3394359316E-01
                                                   Max.-Head-Change                         Max.-Flux-Residual
  Residual-Control   Outer-Iter.   Inner-Iter.     Column Row Layer    Maximum-Head-Change  Column Row Layer    Maximum-Flux-Residual          L2-NORM 
          0                11           1            30   30     2       0.2721648638E-04      46   33    1         0.1466448052E-02      0.3053316747E-01
          0                12           1            30   30     2       0.3883461407E-04      30   30    2         0.1339236176E-02      0.2748474862E-01
          0                13           1            31   31     2       0.2151838703E-04      46   33    1         0.1237189218E-02      0.2471119486E-01
          0                14           1            30   30     2       0.3243970059E-04      30   30    2         0.1091446862E-02      0.2222092172E-01
          0                15           1            31   31     2       0.1699810295E-04      46   35    1         0.1056253830E-02      0.1996260331E-01
          0                16           1            30   30     2       0.2695036151E-04      30   30    2         0.8851336033E-03      0.1792788938E-01
          0                17           1            32   32     2       0.1342421227E-04      46   35    1         0.8949743391E-03      0.1609077714E-01
          0                18           1            30   30     2       0.2226623585E-04      30   30    2         0.7153410710E-03      0.1443098456E-01
          0                19           1            32   32     2       0.1062684562E-04      46   35    1         0.7463009053E-03      0.1293937161E-01
          0                20           1            30   30     2       0.1829248731E-04      30   30    2         0.5765518280E-03      0.1158922562E-01
          0                21           1            32   32     2       0.8414447467E-05      46   35    1         0.6128424760E-03      0.1038132822E-01

    ------------------------------------------------
       NWT REQUIRED           21 OUTER ITERATIONS 
       AND A TOTAL OF         22 INNER ITERATIONS.
    ------------------------------------------------

 OUTPUT CONTROL FOR STRESS PERIOD    1   TIME STEP   65
    SAVE HEAD FOR ALL LAYERS
 SOLVING FOR ZETA FOR LAYER     1 ZONE     2

     961 UPPER PART EQS.       964 LOWER PART EQS.    BAND WIDTH + 1 =   46
 STRESS PERIOD=  1 TIMESTEP= 65 LAYER=  1 ZONE=  2 ACTIVE CELLS= 1925 NUMBER OF EQUATIONS=    1925
 UBUDSV SAVING "      ZETASRF  1" ON UNIT 55 AT TIME STEP 65, STRESS PERIOD    1

 HEAD WILL BE SAVED ON UNIT   51 AT END OF TIME STEP   65, STRESS PERIOD    1
 
 SOLVING FOR HEAD 
                                                   Max.-Head-Change                         Max.-Flux-Residual
  Residual-Control   Outer-Iter.   Inner-Iter.     Column Row Layer    Maximum-Head-Change  Column Row Layer    Maximum-Flux-Residual          L2-NORM 
          0                 1           2            38   40     1       0.1448141909E-02      33   10    1        -0.6041256951E+00      0.5427204635E+01
          0                 2           1            43   17     2       0.1069640487E-03      18   14    2         0.5398197842E-02      0.9812899475E-01
          0                 3           1            21   20     1       0.5647551453E-04      21   20    1         0.3092365744E-02      0.6839549531E-01
          0                 4           1            36   22     2       0.5968871883E-04      24   20    2         0.2324924182E-02      0.5906495057E-01
          0                 5           1            30   26     2       0.4430806650E-04      31   25    2         0.2193858500E-02      0.5243916250E-01
          0                 6           1            29   28     1       0.5390829236E-04      29   27    2         0.1993867066E-02      0.4694815422E-01
          0                 7           1            31   29     2       0.3899703965E-04      31   29    2         0.1925549883E-02      0.4220646318E-01
          0                 8           1            31   30     1       0.4665265348E-04      31   29    2         0.1758283274E-02      0.3799121601E-01
          0                 9           1            30   30     2       0.3221680139E-04      30   30    2         0.1611283263E-02      0.3424383721E-01
          0                10           1            31   30     1       0.3931993572E-04      31   29    2         0.1479280782E-02      0.3086663336E-01
                                                   Max.-Head-Change                         Max.-Flux-Residual
  Residual-Control   Outer-Iter.   Inner-Iter.     Column Row Layer    Maximum-Head-Change  Column Row Layer    Maximum-Flux-Residual          L2-NORM 
          0                11           1            30   30     2       0.2598131239E-04      30   30    2         0.1322262072E-02      0.2783858846E-01
          0                12           1            30   30     2       0.3287890406E-04      31   29    2         0.1221455627E-02      0.2509945206E-01
          0                13           1            30   30     2       0.2075860005E-04      46   31    1         0.1085819865E-02      0.2263782375E-01
          0                14           1            31   31     2       0.2739009632E-04      31   29    2         0.1000110349E-02      0.2040534976E-01
          0                15           1            31   31     2       0.1655629557E-04      47   22    1         0.9140789375E-03      0.1840010340E-01
          0                16           1            31   31     2       0.2275623133E-04      31   29    2         0.8153600908E-03      0.1657695603E-01
          0                17           1            31   31     2       0.1320476172E-04      47   22    1         0.7842227472E-03      0.1494237294E-01
          0                18           1            31   31     2       0.1883927012E-04      31   29    2         0.6630165387E-03      0.1345303831E-01
          0                19           1            31   31     2       0.1054091533E-04      47   22    1         0.6647006975E-03      0.1212103254E-01
          0                20           1            31   31     2       0.1553440772E-04      31   29    2         0.5381516419E-03      0.1090541899E-01
          0                21           1            31   31     2       0.8424748876E-05      47   22    1         0.5565065113E-03      0.9821233851E-02

    ------------------------------------------------
       NWT REQUIRED           21 OUTER ITERATIONS 
       AND A TOTAL OF         22 INNER ITERATIONS.
    ------------------------------------------------

 OUTPUT CONTROL FOR STRESS PERIOD    1   TIME STEP   66
    SAVE HEAD FOR ALL LAYERS
 SOLVING FOR ZETA FOR LAYER     1 ZONE     2

     945 UPPER PART EQS.       956 LOWER PART EQS.    BAND WIDTH + 1 =   44
 STRESS PERIOD=  1 TIMESTEP= 66 LAYER=  1 ZONE=  2 ACTIVE CELLS= 1901 NUMBER OF EQUATIONS=    1901
 UBUDSV SAVING "      ZETASRF  1" ON UNIT 55 AT TIME STEP 66, STRESS PERIOD    1

 HEAD WILL BE SAVED ON UNIT   51 AT END OF TIME STEP   66, STRESS PERIOD    1
 
 SOLVING FOR HEAD 
                                                   Max.-Head-Change                         Max.-Flux-Residual
  Residual-Control   Outer-Iter.   Inner-Iter.     Column Row Layer    Maximum-Head-Change  Column Row Layer    Maximum-Flux-Residual          L2-NORM 
          0                 1           2            38   40     1       0.1441462718E-02      53   14    1        -0.5171364171E+00      0.5570469488E+01
          0                 2           1            43   41     2       0.8335678216E-04      19   17    2         0.4421163333E-02      0.9287087666E-01
          0                 3           1            23   20     1       0.4933426727E-04      25   19    2         0.2754894248E-02      0.6321302724E-01
          0                 4           1            27   22     1       0.6045587307E-04      27   22    1         0.2196446405E-02      0.5459735307E-01
          0                 5           1            31   29     2       0.4114284539E-04      30   26    2         0.2136570974E-02      0.4856137558E-01
          0                 6           1            29   28     1       0.5481065203E-04      31   29    2         0.1919424670E-02      0.4356193655E-01
          0                 7           1            31   29     2       0.3511088442E-04      31   29    2         0.1838095482E-02      0.3911880750E-01
          0                 8           1            31   30     1       0.4684022072E-04      31   29    2         0.1655171591E-02      0.3520590246E-01
          0                 9           1            30   30     2       0.2839271295E-04      46   27    1         0.1591831593E-02      0.3166387699E-01
          0                10           1            30   30     2       0.3935153966E-04      30   30    2         0.1375198942E-02      0.2851408470E-01
                                                   Max.-Head-Change                         Max.-Flux-Residual
  Residual-Control   Outer-Iter.   Inner-Iter.     Column Row Layer    Maximum-Head-Change  Column Row Layer    Maximum-Flux-Residual          L2-NORM 
          0                11           1            30   30     2       0.2260621756E-04      46   27    1         0.1385030511E-02      0.2564680580E-01
          0                12           1            30   30     2       0.3285751260E-04      30   30    2         0.1127044279E-02      0.2308635600E-01
          0                13           1            31   30     2       0.1791649290E-04      46   27    1         0.1191893324E-02      0.2075543088E-01
          0                14           1            30   30     2       0.2728649819E-04      30   30    2         0.9172289482E-03      0.1866752218E-01
          0                15           1            32   30     2       0.1420984527E-04      46   27    1         0.1012638801E-02      0.1677219846E-01
          0                16           1            31   31     2       0.2254324405E-04      30   30    2         0.7434803520E-03      0.1506965600E-01
          0                17           1            32   30     2       0.1128270430E-04      46   27    1         0.8491649564E-03      0.1353060746E-01
          0                18           1            31   31     2       0.1852264061E-04      30   30    2         0.6011023089E-03      0.1214482246E-01
          0                19           1            33   31     2       0.8978741001E-05      46   27    1         0.7032233799E-03      0.1089781278E-01

    ------------------------------------------------
       NWT REQUIRED           19 OUTER ITERATIONS 
       AND A TOTAL OF         20 INNER ITERATIONS.
    ------------------------------------------------

 OUTPUT CONTROL FOR STRESS PERIOD    1   TIME STEP   67
    SAVE HEAD FOR ALL LAYERS
 SOLVING FOR ZETA FOR LAYER     1 ZONE     2

     973 UPPER PART EQS.       972 LOWER PART EQS.    BAND WIDTH + 1 =   46
 STRESS PERIOD=  1 TIMESTEP= 67 LAYER=  1 ZONE=  2 ACTIVE CELLS= 1945 NUMBER OF EQUATIONS=    1945
 UBUDSV SAVING "      ZETASRF  1" ON UNIT 55 AT TIME STEP 67, STRESS PERIOD    1

 HEAD WILL BE SAVED ON UNIT   51 AT END OF TIME STEP   67, STRESS PERIOD    1
 
 SOLVING FOR HEAD 
                                                   Max.-Head-Change                         Max.-Flux-Residual
  Residual-Control   Outer-Iter.   Inner-Iter.     Column Row Layer    Maximum-Head-Change  Column Row Layer    Maximum-Flux-Residual          L2-NORM 
          0                 1           2            31   41     1       0.1440118501E-02      31   10    1        -0.4741454684E+00      0.5525520732E+01
          0                 2           1            43   17     2       0.1049076304E-03      18   14    2         0.5251698612E-02      0.1047291724E+00
          0                 3           1            23   20     1       0.6320213434E-04      22   19    1         0.3313468496E-02      0.7778878738E-01
          0                 4           1            25   21     2       0.6654191218E-04      49   32    1         0.3222679365E-02      0.6744228757E-01
          0                 5           1            30   26     2       0.4933440817E-04      46   35    1         0.2597446704E-02      0.5989869187E-01
          0                 6           1            29   28     1       0.6209569437E-04      49   32    1         0.2561981559E-02      0.5365917150E-01
          0                 7           1            31   29     2       0.4282406062E-04      46   35    1         0.2269315447E-02      0.4822383577E-01
          0                 8           1            31   30     1       0.5576206353E-04      49   32    1         0.2040842169E-02      0.4342003550E-01
          0                 9           1            30   30     2       0.3483049592E-04      46   35    1         0.2011784090E-02      0.3908262707E-01
          0                10           1            31   30     1       0.4819130668E-04      31   29    2         0.1688045879E-02      0.3520599512E-01
                                                   Max.-Head-Change                         Max.-Flux-Residual
  Residual-Control   Outer-Iter.   Inner-Iter.     Column Row Layer    Maximum-Head-Change  Column Row Layer    Maximum-Flux-Residual          L2-NORM 
          0                11           1            30   30     2       0.2767385268E-04      46   35    1         0.1772702433E-02      0.3167185661E-01
          0                12           1            30   30     2       0.4092580905E-04      31   29    2         0.1389828807E-02      0.2850585762E-01
          0                13           1            31   31     2       0.2185065177E-04      46   35    1         0.1540265682E-02      0.2561593490E-01
          0                14           1            30   30     2       0.3432901739E-04      31   29    2         0.1130829189E-02      0.2302422403E-01
          0                15           1            31   31     2       0.1724822159E-04      46   35    1         0.1315809685E-02      0.2066491193E-01
          0                16           1            30   30     2       0.2850190114E-04      30   30    2         0.9140231931E-03      0.1854655917E-01
          0                17           1            31   31     2       0.1362378215E-04      46   35    1         0.1104549475E-02      0.1662632863E-01
          0                18           1            31   31     2       0.2345123883E-04      30   30    2         0.7356819375E-03      0.1490077266E-01
          0                19           1            31   31     2       0.1077497651E-04      46   35    1         0.9117074227E-03      0.1334394217E-01
          0                20           1            31   31     2       0.1914251677E-04      30   30    2         0.5901561685E-03      0.1194424487E-01
          0                21           1            32   32     2       0.8534154977E-05      46   35    1         0.7409395400E-03      0.1068702527E-01

    ------------------------------------------------
       NWT REQUIRED           21 OUTER ITERATIONS 
       AND A TOTAL OF         22 INNER ITERATIONS.
    ------------------------------------------------

 OUTPUT CONTROL FOR STRESS PERIOD    1   TIME STEP   68
    SAVE HEAD FOR ALL LAYERS
 SOLVING FOR ZETA FOR LAYER     1 ZONE     2

     945 UPPER PART EQS.       956 LOWER PART EQS.    BAND WIDTH + 1 =   44
 STRESS PERIOD=  1 TIMESTEP= 68 LAYER=  1 ZONE=  2 ACTIVE CELLS= 1901 NUMBER OF EQUATIONS=    1901
 UBUDSV SAVING "      ZETASRF  1" ON UNIT 55 AT TIME STEP 68, STRESS PERIOD    1

 HEAD WILL BE SAVED ON UNIT   51 AT END OF TIME STEP   68, STRESS PERIOD    1
 
 SOLVING FOR HEAD 
                                                   Max.-Head-Change                         Max.-Flux-Residual
  Residual-Control   Outer-Iter.   Inner-Iter.     Column Row Layer    Maximum-Head-Change  Column Row Layer    Maximum-Flux-Residual          L2-NORM 
          0                 1           2            37   39     1       0.1426776973E-02      53   14    1        -0.5269226532E+00      0.5623276840E+01
          0                 2           1            42   40     2       0.7426941155E-04      19   17    2         0.3975210996E-02      0.8679648720E-01
          0                 3           1            38   21     1       0.4309050628E-04      25   19    2         0.2479391457E-02      0.5675757016E-01
          0                 4           1            27   22     1       0.5723959283E-04      27   21    2         0.1999537324E-02      0.4868317266E-01
          0                 5           1            31   29     2       0.3702859608E-04      30   26    2         0.1964214410E-02      0.4324414710E-01
          0                 6           1            31   30     1       0.5227345968E-04      31   29    2         0.1758879355E-02      0.3876949500E-01
          0                 7           1            31   29     2       0.3058396261E-04      31   29    2         0.1653110881E-02      0.3478071815E-01
          0                 8           1            30   30     2       0.4427281204E-04      31   29    2         0.1489234105E-02      0.3123351866E-01
          0                 9           1            31   29     2       0.2433259554E-04      46   27    1         0.1404270788E-02      0.2804993250E-01
          0                10           1            30   30     2       0.3698759844E-04      30   30    2         0.1223767607E-02      0.2518847373E-01
                                                   Max.-Head-Change                         Max.-Flux-Residual
  Residual-Control   Outer-Iter.   Inner-Iter.     Column Row Layer    Maximum-Head-Change  Column Row Layer    Maximum-Flux-Residual          L2-NORM 
          0                11           1            30   30     2       0.1920301332E-04      46   27    1         0.1223787075E-02      0.2261695590E-01
          0                12           1            30   30     2       0.3065702125E-04      30   30    2         0.9948605524E-03      0.2029262237E-01
          0                13           1            31   30     2       0.1515031194E-04      46   27    1         0.1050880830E-02      0.1821020720E-01
          0                14           1            30   30     2       0.2519476786E-04      30   30    2         0.8039182228E-03      0.1632095783E-01
          0                15           1            32   30     2       0.1199382594E-04      46   27    1         0.8880700203E-03      0.1463737502E-01
          0                16           1            31   31     2       0.2054097605E-04      30   30    2         0.6474413861E-03      0.1310581990E-01
          0                17           1            32   30     2       0.9528930272E-05      46   27    1         0.7389457055E-03      0.1174878772E-01

    ------------------------------------------------
       NWT REQUIRED           17 OUTER ITERATIONS 
       AND A TOTAL OF         18 INNER ITERATIONS.
    ------------------------------------------------

 OUTPUT CONTROL FOR STRESS PERIOD    1   TIME STEP   69
    SAVE HEAD FOR ALL LAYERS
 SOLVING FOR ZETA FOR LAYER     1 ZONE     2

     973 UPPER PART EQS.       972 LOWER PART EQS.    BAND WIDTH + 1 =   46
 STRESS PERIOD=  1 TIMESTEP= 69 LAYER=  1 ZONE=  2 ACTIVE CELLS= 1945 NUMBER OF EQUATIONS=    1945
 UBUDSV SAVING "      ZETASRF  1" ON UNIT 55 AT TIME STEP 69, STRESS PERIOD    1

 HEAD WILL BE SAVED ON UNIT   51 AT END OF TIME STEP   69, STRESS PERIOD    1
 
 SOLVING FOR HEAD 
                                                   Max.-Head-Change                         Max.-Flux-Residual
  Residual-Control   Outer-Iter.   Inner-Iter.     Column Row Layer    Maximum-Head-Change  Column Row Layer    Maximum-Flux-Residual          L2-NORM 
          0                 1           2            32   40     1       0.1424440091E-02      52   31    1        -0.4112791095E+00      0.5712477763E+01
          0                 2           1            43   17     2       0.9453098182E-04      18   14    2         0.4865927995E-02      0.9784456166E-01
          0                 3           1            23   20     1       0.5844904979E-04      22   19    1         0.3066509471E-02      0.7170225322E-01
          0                 4           1            27   22     1       0.6226770195E-04      49   32    1         0.2776269852E-02      0.6222984437E-01
          0                 5           1            30   26     2       0.4599512621E-04      31   25    2         0.2328875698E-02      0.5528923304E-01
          0                 6           1            29   28     1       0.5846448895E-04      49   32    1         0.2229815588E-02      0.4958116017E-01
          0                 7           1            31   29     2       0.3949379903E-04      31   29    2         0.2040562615E-02      0.4452823376E-01
          0                 8           1            31   30     1       0.5241416147E-04      31   29    2         0.1859843284E-02      0.4010774929E-01
          0                 9           1            30   30     2       0.3189693881E-04      46   35    1         0.1793898775E-02      0.3606610207E-01
          0                10           1            31   30     1       0.4531408409E-04      31   29    2         0.1563005764E-02      0.3249005115E-01
                                                   Max.-Head-Change                         Max.-Flux-Residual
  Residual-Control   Outer-Iter.   Inner-Iter.     Column Row Layer    Maximum-Head-Change  Column Row Layer    Maximum-Flux-Residual          L2-NORM 
          0                11           1            30   30     2       0.2522876942E-04      46   35    1         0.1581290061E-02      0.2919578023E-01
          0                12           1            30   30     2       0.3850277866E-04      31   29    2         0.1283756220E-02      0.2627080958E-01
          0                13           1            31   31     2       0.1984073563E-04      46   35    1         0.1373166368E-02      0.2357754296E-01
          0                14           1            30   30     2       0.3229818062E-04      31   29    2         0.1042029374E-02      0.2118099748E-01
          0                15           1            31   31     2       0.1561698508E-04      46   35    1         0.1171186795E-02      0.1898349902E-01
          0                16           1            31   31     2       0.2678424016E-04      31   29    2         0.8398975816E-03      0.1702430270E-01
          0                17           1            31   31     2       0.1230669398E-04      46   35    1         0.9805033832E-03      0.1523832277E-01
          0                18           1            31   31     2       0.2197986326E-04      31   29    2         0.6738396719E-03      0.1364367015E-01
          0                19           1            31   31     2       0.9715139287E-05      46   35    1         0.8063667008E-03      0.1219907470E-01

    ------------------------------------------------
       NWT REQUIRED           19 OUTER ITERATIONS 
       AND A TOTAL OF         20 INNER ITERATIONS.
    ------------------------------------------------

 OUTPUT CONTROL FOR STRESS PERIOD    1   TIME STEP   70
    SAVE HEAD FOR ALL LAYERS
 SOLVING FOR ZETA FOR LAYER     1 ZONE     2

     953 UPPER PART EQS.       956 LOWER PART EQS.    BAND WIDTH + 1 =   44
 STRESS PERIOD=  1 TIMESTEP= 70 LAYER=  1 ZONE=  2 ACTIVE CELLS= 1909 NUMBER OF EQUATIONS=    1909
 UBUDSV SAVING "      ZETASRF  1" ON UNIT 55 AT TIME STEP 70, STRESS PERIOD    1

 HEAD WILL BE SAVED ON UNIT   51 AT END OF TIME STEP   70, STRESS PERIOD    1
 
 SOLVING FOR HEAD 
                                                   Max.-Head-Change                         Max.-Flux-Residual
  Residual-Control   Outer-Iter.   Inner-Iter.     Column Row Layer    Maximum-Head-Change  Column Row Layer    Maximum-Flux-Residual          L2-NORM 
          0                 1           2            36   38     1       0.1414210769E-02      14    9    1        -0.5340901382E+00      0.5790944864E+01
          0                 2           1            42   40     2       0.6736957708E-04      19   17    2         0.3654117077E-02      0.8236831152E-01
          0                 3           1            38   21     1       0.3891713643E-04      24   20    2         0.2282146659E-02      0.5228117944E-01
          0                 4           1            34   23     1       0.5392134455E-04      27   21    2         0.1854717648E-02      0.4451168271E-01
          0                 5           1            31   29     2       0.3460962543E-04      30   26    2         0.1837115703E-02      0.3948843005E-01
          0                 6           1            31   30     1       0.4901528405E-04      31   29    2         0.1641290961E-02      0.3540668621E-01
          0                 7           1            31   29     2       0.2812184125E-04      31   29    2         0.1523778937E-02      0.3176334499E-01
          0                 8           1            30   30     2       0.4093767011E-04      31   29    2         0.1370893292E-02      0.2850583122E-01
          0                 9           1            31   29     2       0.2224430086E-04      46   27    1         0.1234654740E-02      0.2560018608E-01
          0                10           1            30   30     2       0.3397972143E-04      30   30    2         0.1119612404E-02      0.2297268028E-01
                                                   Max.-Head-Change                         Max.-Flux-Residual
  Residual-Control   Outer-Iter.   Inner-Iter.     Column Row Layer    Maximum-Head-Change  Column Row Layer    Maximum-Flux-Residual          L2-NORM 
          0                11           1            30   30     2       0.1751526472E-04      46   27    1         0.1077482630E-02      0.2062942435E-01
          0                12           1            30   30     2       0.2806905081E-04      30   30    2         0.9076271763E-03      0.1849632604E-01
          0                13           1            31   30     2       0.1379323712E-04      46   27    1         0.9267222827E-03      0.1660279692E-01
          0                14           1            30   30     2       0.2304868696E-04      30   30    2         0.7323100573E-03      0.1486890235E-01
          0                15           1            32   30     2       0.1089723041E-04      46   27    1         0.7844997856E-03      0.1334000455E-01
          0                16           1            31   31     2       0.1880078348E-04      30   30    2         0.5891275742E-03      0.1193354363E-01
          0                17           1            32   30     2       0.8639498243E-05      46   27    1         0.6537101239E-03      0.1070229419E-01

    ------------------------------------------------
       NWT REQUIRED           17 OUTER ITERATIONS 
       AND A TOTAL OF         18 INNER ITERATIONS.
    ------------------------------------------------

 OUTPUT CONTROL FOR STRESS PERIOD    1   TIME STEP   71
    SAVE HEAD FOR ALL LAYERS
 SOLVING FOR ZETA FOR LAYER     1 ZONE     2

     973 UPPER PART EQS.       972 LOWER PART EQS.    BAND WIDTH + 1 =   46
 STRESS PERIOD=  1 TIMESTEP= 71 LAYER=  1 ZONE=  2 ACTIVE CELLS= 1945 NUMBER OF EQUATIONS=    1945
 UBUDSV SAVING "      ZETASRF  1" ON UNIT 55 AT TIME STEP 71, STRESS PERIOD    1

 HEAD WILL BE SAVED ON UNIT   51 AT END OF TIME STEP   71, STRESS PERIOD    1
 
 SOLVING FOR HEAD 
                                                   Max.-Head-Change                         Max.-Flux-Residual
  Residual-Control   Outer-Iter.   Inner-Iter.     Column Row Layer    Maximum-Head-Change  Column Row Layer    Maximum-Flux-Residual          L2-NORM 
          0                 1           2            31   39     1       0.1408978393E-02      10   39    1         0.4568301649E+00      0.5591999611E+01
          0                 2           1            43   17     2       0.8429037912E-04      18   14    2         0.4486059520E-02      0.9065224810E-01
          0                 3           1            22   19     1       0.5284967320E-04      22   19    1         0.2807048518E-02      0.6507087445E-01
          0                 4           1            27   22     1       0.5736535731E-04      49   32    1         0.2349004917E-02      0.5637627657E-01
          0                 5           1            30   26     2       0.4196506181E-04      31   25    2         0.2132155257E-02      0.5009802402E-01
          0                 6           1            29   28     1       0.5359286740E-04      29   27    2         0.1920095843E-02      0.4492816257E-01
          0                 7           1            31   29     2       0.3588251269E-04      31   29    2         0.1856972582E-02      0.4035618725E-01
          0                 8           1            31   30     1       0.4769780728E-04      31   29    2         0.1692327065E-02      0.3634137891E-01
          0                 9           1            30   30     2       0.2894428489E-04      46   35    1         0.1568819764E-02      0.3268362506E-01
          0                10           1            31   30     1       0.4106344230E-04      31   29    2         0.1419216016E-02      0.2943702338E-01
                                                   Max.-Head-Change                         Max.-Flux-Residual
  Residual-Control   Outer-Iter.   Inner-Iter.     Column Row Layer    Maximum-Head-Change  Column Row Layer    Maximum-Flux-Residual          L2-NORM 
          0                11           1            30   30     2       0.2290424612E-04      46   35    1         0.1380166001E-02      0.2645839274E-01
          0                12           1            30   30     2       0.3478782465E-04      31   29    2         0.1164650791E-02      0.2380515552E-01
          0                13           1            30   30     2       0.1803133227E-04      46   35    1         0.1196300093E-02      0.2137222833E-01
          0                14           1            30   30     2       0.2910534486E-04      31   29    2         0.9451707368E-03      0.1920022624E-01
          0                15           1            31   31     2       0.1421721535E-04      46   35    1         0.1018729418E-02      0.1721683552E-01
          0                16           1            31   31     2       0.2408314291E-04      31   29    2         0.7620574099E-03      0.1544288297E-01
          0                17           1            31   31     2       0.1122957422E-04      46   35    1         0.8519554562E-03      0.1383198068E-01
          0                18           1            31   31     2       0.1973008002E-04      31   29    2         0.6118329125E-03      0.1238925210E-01
          0                19           1            31   31     2       0.8888788889E-05      46   35    1         0.7003869340E-03      0.1108665802E-01

    ------------------------------------------------
       NWT REQUIRED           19 OUTER ITERATIONS 
       AND A TOTAL OF         20 INNER ITERATIONS.
    ------------------------------------------------

 OUTPUT CONTROL FOR STRESS PERIOD    1   TIME STEP   72
    SAVE HEAD FOR ALL LAYERS
 SOLVING FOR ZETA FOR LAYER     1 ZONE     2

     945 UPPER PART EQS.       956 LOWER PART EQS.    BAND WIDTH + 1 =   44
 STRESS PERIOD=  1 TIMESTEP= 72 LAYER=  1 ZONE=  2 ACTIVE CELLS= 1901 NUMBER OF EQUATIONS=    1901
 UBUDSV SAVING "      ZETASRF  1" ON UNIT 55 AT TIME STEP 72, STRESS PERIOD    1

 HEAD WILL BE SAVED ON UNIT   51 AT END OF TIME STEP   72, STRESS PERIOD    1
 
 SOLVING FOR HEAD 
                                                   Max.-Head-Change                         Max.-Flux-Residual
  Residual-Control   Outer-Iter.   Inner-Iter.     Column Row Layer    Maximum-Head-Change  Column Row Layer    Maximum-Flux-Residual          L2-NORM 
          0                 1           2            35   37     1       0.1400216806E-02       9   14    1        -0.5454433281E+00      0.6014595350E+01
          0                 2           1            42   40     2       0.5946087309E-04      22   51    1        -0.3738771017E-02      0.7835554092E-01
          0                 3           1            37   22     1       0.3246030544E-04      38   38    2         0.2029710114E-02      0.4592230903E-01
          0                 4           1            33   24     1       0.4993129045E-04      27   21    2         0.1644644583E-02      0.3801143767E-01
          0                 5           1            31   29     2       0.3002253704E-04      31   29    2         0.1640222097E-02      0.3347557950E-01
          0                 6           1            31   30     1       0.4580768451E-04      31   29    2         0.1452633233E-02      0.2997127348E-01
          0                 7           1            31   29     2       0.2328124489E-04      31   29    2         0.1304644118E-02      0.2682530086E-01
          0                 8           1            30   30     2       0.3725706183E-04      31   29    2         0.1173977059E-02      0.2397498613E-01
          0                 9           1            31   29     2       0.1817715127E-04      46   27    1         0.1050880326E-02      0.2147794484E-01
          0                10           1            30   30     2       0.2982775854E-04      30   30    2         0.9409329392E-03      0.1918842530E-01
                                                   Max.-Head-Change                         Max.-Flux-Residual
  Residual-Control   Outer-Iter.   Inner-Iter.     Column Row Layer    Maximum-Head-Change  Column Row Layer    Maximum-Flux-Residual          L2-NORM 
          0                11           1            30   30     2       0.1437154966E-04      46   27    1         0.9160000294E-03      0.1720627552E-01
          0                12           1            30   30     2       0.2369898843E-04      30   30    2         0.7549040324E-03      0.1537288424E-01
          0                13           1            31   30     2       0.1148087611E-04      46   27    1         0.7811408071E-03      0.1379965631E-01
          0                14           1            30   30     2       0.1872218807E-04      30   30    2         0.6062104140E-03      0.1233536862E-01
          0                15           1            32   30     2       0.9260108342E-05      46   27    1         0.6534900132E-03      0.1108698531E-01

    ------------------------------------------------
       NWT REQUIRED           15 OUTER ITERATIONS 
       AND A TOTAL OF         16 INNER ITERATIONS.
    ------------------------------------------------

 OUTPUT CONTROL FOR STRESS PERIOD    1   TIME STEP   73
    SAVE HEAD FOR ALL LAYERS
 SOLVING FOR ZETA FOR LAYER     1 ZONE     2

     985 UPPER PART EQS.       972 LOWER PART EQS.    BAND WIDTH + 1 =   46
 STRESS PERIOD=  1 TIMESTEP= 73 LAYER=  1 ZONE=  2 ACTIVE CELLS= 1957 NUMBER OF EQUATIONS=    1957
 UBUDSV SAVING "      ZETASRF  1" ON UNIT 55 AT TIME STEP 73, STRESS PERIOD    1

 HEAD WILL BE SAVED ON UNIT   51 AT END OF TIME STEP   73, STRESS PERIOD    1
 
 SOLVING FOR HEAD 
                                                   Max.-Head-Change                         Max.-Flux-Residual
  Residual-Control   Outer-Iter.   Inner-Iter.     Column Row Layer    Maximum-Head-Change  Column Row Layer    Maximum-Flux-Residual          L2-NORM 
          0                 1           2            32   38     1       0.1396036325E-02      10   39    1         0.5016381441E+00      0.5764598190E+01
          0                 2           1            43   17     2       0.7930085246E-04      18   14    2         0.4371770726E-02      0.8653259137E-01
          0                 3           1            22   19     1       0.4967049902E-04      22   19    1         0.2649710776E-02      0.6130754919E-01
          0                 4           1            25   21     2       0.5431091926E-04      24   20    2         0.2103548181E-02      0.5300602364E-01
          0                 5           1            30   26     2       0.3946081052E-04      31   25    2         0.2013382497E-02      0.4705171231E-01
          0                 6           1            29   28     1       0.5106166409E-04      29   27    2         0.1809808500E-02      0.4220962162E-01
          0                 7           1            31   29     2       0.3341445233E-04      31   29    2         0.1745591380E-02      0.3788303299E-01
          0                 8           1            31   30     1       0.4572899910E-04      31   29    2         0.1591458492E-02      0.3410979867E-01
          0                 9           1            30   30     2       0.2669072847E-04      30   30    2         0.1443425226E-02      0.3064626769E-01
          0                10           1            31   30     1       0.3974514485E-04      31   29    2         0.1332122849E-02      0.2758309461E-01
                                                   Max.-Head-Change                         Max.-Flux-Residual
  Residual-Control   Outer-Iter.   Inner-Iter.     Column Row Layer    Maximum-Head-Change  Column Row Layer    Maximum-Flux-Residual          L2-NORM 
          0                11           1            30   30     2       0.2091590766E-04      46   35    1         0.1249567786E-02      0.2475688843E-01
          0                12           1            30   30     2       0.3397187826E-04      31   29    2         0.1089887465E-02      0.2224132743E-01
          0                13           1            30   30     2       0.1629799180E-04      46   35    1         0.1085111682E-02      0.1992797087E-01
          0                14           1            30   30     2       0.2862267849E-04      31   29    2         0.8804170700E-03      0.1785927407E-01
          0                15           1            31   31     2       0.1270952702E-04      46   35    1         0.9239313914E-03      0.1597048750E-01
          0                16           1            31   31     2       0.2377820178E-04      31   29    2         0.7053074679E-03      0.1427571208E-01
          0                17           1            31   31     2       0.9927068136E-05      46   35    1         0.7704640494E-03      0.1274199703E-01

    ------------------------------------------------
       NWT REQUIRED           17 OUTER ITERATIONS 
       AND A TOTAL OF         18 INNER ITERATIONS.
    ------------------------------------------------

 OUTPUT CONTROL FOR STRESS PERIOD    1   TIME STEP   74
    SAVE HEAD FOR ALL LAYERS
 SOLVING FOR ZETA FOR LAYER     1 ZONE     2

     945 UPPER PART EQS.       956 LOWER PART EQS.    BAND WIDTH + 1 =   44
 STRESS PERIOD=  1 TIMESTEP= 74 LAYER=  1 ZONE=  2 ACTIVE CELLS= 1901 NUMBER OF EQUATIONS=    1901
 UBUDSV SAVING "      ZETASRF  1" ON UNIT 55 AT TIME STEP 74, STRESS PERIOD    1

 HEAD WILL BE SAVED ON UNIT   51 AT END OF TIME STEP   74, STRESS PERIOD    1
 
 SOLVING FOR HEAD 
                                                   Max.-Head-Change                         Max.-Flux-Residual
  Residual-Control   Outer-Iter.   Inner-Iter.     Column Row Layer    Maximum-Head-Change  Column Row Layer    Maximum-Flux-Residual          L2-NORM 
          0                 1           2            34   36     1       0.1389771634E-02      53   14    1        -0.5542776795E+00      0.6143854763E+01
          0                 2           1            42   40     2       0.5423982455E-04      22   51    1        -0.3880105054E-02      0.7567058213E-01
          0                 3           1            37   22     1       0.2939402281E-04      38   38    2         0.1897253030E-02      0.4259307958E-01
          0                 4           1            32   25     1       0.4684804311E-04      34   22    2         0.1537819683E-02      0.3448297488E-01
          0                 5           1            31   29     2       0.2810007222E-04      31   29    2         0.1543871295E-02      0.3013155677E-01
          0                 6           1            31   29     2       0.4307216859E-04      31   29    2         0.1353854320E-02      0.2696980251E-01
          0                 7           1            31   29     2       0.2117324886E-04      31   29    2         0.1191862467E-02      0.2409112513E-01
          0                 8           1            30   30     2       0.3425031612E-04      31   29    2         0.1068728289E-02      0.2152667233E-01
          0                 9           1            31   29     2       0.1636667568E-04      31   29    2         0.9293408201E-03      0.1926250426E-01
          0                10           1            30   30     2       0.2693052207E-04      30   30    2         0.8474231521E-03      0.1720287100E-01
                                                   Max.-Head-Change                         Max.-Flux-Residual
  Residual-Control   Outer-Iter.   Inner-Iter.     Column Row Layer    Maximum-Head-Change  Column Row Layer    Maximum-Flux-Residual          L2-NORM 
          0                11           1            31   29     2       0.1293690737E-04      46   27    1         0.8052160859E-03      0.1541979386E-01
          0                12           1            30   30     2       0.2112265319E-04      30   30    2         0.6771114480E-03      0.1377670847E-01
          0                13           1            31   29     2       0.1037218465E-04      46   27    1         0.6863808185E-03      0.1236952109E-01
          0                14           1            30   30     2       0.1654473105E-04      30   30    2         0.5432030260E-03      0.1106208975E-01
          0                15           1            32   30     2       0.8401136999E-05      46   27    1         0.5737393545E-03      0.9948768813E-02

    ------------------------------------------------
       NWT REQUIRED           15 OUTER ITERATIONS 
       AND A TOTAL OF         16 INNER ITERATIONS.
    ------------------------------------------------

 OUTPUT CONTROL FOR STRESS PERIOD    1   TIME STEP   75
    SAVE HEAD FOR ALL LAYERS
 SOLVING FOR ZETA FOR LAYER     1 ZONE     2

     973 UPPER PART EQS.       972 LOWER PART EQS.    BAND WIDTH + 1 =   46
 STRESS PERIOD=  1 TIMESTEP= 75 LAYER=  1 ZONE=  2 ACTIVE CELLS= 1945 NUMBER OF EQUATIONS=    1945
 UBUDSV SAVING "      ZETASRF  1" ON UNIT 55 AT TIME STEP 75, STRESS PERIOD    1

 HEAD WILL BE SAVED ON UNIT   51 AT END OF TIME STEP   75, STRESS PERIOD    1
 
 SOLVING FOR HEAD 
                                                   Max.-Head-Change                         Max.-Flux-Residual
  Residual-Control   Outer-Iter.   Inner-Iter.     Column Row Layer    Maximum-Head-Change  Column Row Layer    Maximum-Flux-Residual          L2-NORM 
          0                 1           2            33   37     1       0.1382471866E-02      39   52    1         0.5370063771E+00      0.5933634392E+01
          0                 2           1            43   17     2       0.6997744164E-04      44   16    2         0.3940110053E-02      0.8050918544E-01
          0                 3           1            22   19     1       0.4380920876E-04      49   40    1         0.2458557027E-02      0.5503914910E-01
          0                 4           1            27   22     1       0.5049983762E-04      24   20    2         0.1919527032E-02      0.4739317200E-01
          0                 5           1            30   26     2       0.3558245248E-04      31   25    2         0.1837599870E-02      0.4207053356E-01
          0                 6           1            29   28     1       0.4722249696E-04      29   27    2         0.1649948024E-02      0.3775033921E-01
          0                 7           1            31   29     2       0.2979793960E-04      31   29    2         0.1574581777E-02      0.3387651200E-01
          0                 8           1            31   30     1       0.4184905353E-04      31   29    2         0.1435712715E-02      0.3048297501E-01
          0                 9           1            30   30     2       0.2365825424E-04      30   30    2         0.1292723967E-02      0.2737695199E-01
          0                10           1            31   30     1       0.3620071286E-04      31   29    2         0.1194587158E-02      0.2461754620E-01
                                                   Max.-Head-Change                         Max.-Flux-Residual
  Residual-Control   Outer-Iter.   Inner-Iter.     Column Row Layer    Maximum-Head-Change  Column Row Layer    Maximum-Flux-Residual          L2-NORM 
          0                11           1            30   30     2       0.1847415154E-04      46   35    1         0.1091827846E-02      0.2208517425E-01
          0                12           1            30   30     2       0.3087864159E-04      31   29    2         0.9736647507E-03      0.1981768938E-01
          0                13           1            30   30     2       0.1435722500E-04      46   35    1         0.9477737007E-03      0.1774642268E-01
          0                14           1            30   30     2       0.2596988233E-04      31   29    2         0.7841092308E-03      0.1588165988E-01
          0                15           1            31   31     2       0.1116608207E-04      46   35    1         0.8065796483E-03      0.1419237834E-01
          0                16           1            31   31     2       0.2152661839E-04      31   29    2         0.6262947031E-03      0.1266558408E-01
          0                17           1            31   31     2       0.8702866496E-05      46   35    1         0.6721039336E-03      0.1129572796E-01

    ------------------------------------------------
       NWT REQUIRED           17 OUTER ITERATIONS 
       AND A TOTAL OF         18 INNER ITERATIONS.
    ------------------------------------------------

 OUTPUT CONTROL FOR STRESS PERIOD    1   TIME STEP   76
    SAVE HEAD FOR ALL LAYERS
 SOLVING FOR ZETA FOR LAYER     1 ZONE     2

     953 UPPER PART EQS.       956 LOWER PART EQS.    BAND WIDTH + 1 =   44
 STRESS PERIOD=  1 TIMESTEP= 76 LAYER=  1 ZONE=  2 ACTIVE CELLS= 1909 NUMBER OF EQUATIONS=    1909
 UBUDSV SAVING "      ZETASRF  1" ON UNIT 55 AT TIME STEP 76, STRESS PERIOD    1

 HEAD WILL BE SAVED ON UNIT   51 AT END OF TIME STEP   76, STRESS PERIOD    1
 
 SOLVING FOR HEAD 
                                                   Max.-Head-Change                         Max.-Flux-Residual
  Residual-Control   Outer-Iter.   Inner-Iter.     Column Row Layer    Maximum-Head-Change  Column Row Layer    Maximum-Flux-Residual          L2-NORM 
          0                 1           2            33   35     1       0.1376625054E-02      14    9    1        -0.5609100073E+00      0.6286345321E+01
          0                 2           1            34   54     2      -0.5032206096E-04      22   51    1        -0.3931065933E-02      0.7238986448E-01
          0                 3           1            37   22     1       0.2590345350E-04      42   51    1        -0.1884373600E-02      0.3870095531E-01
          0                 4           1            32   25     1       0.4132158758E-04      34   22    2         0.1380528849E-02      0.3032539580E-01
          0                 5           1            31   29     2       0.2507795211E-04      31   29    2         0.1385205907E-02      0.2622867156E-01
          0                 6           1            31   29     2       0.3898728672E-04      31   29    2         0.1209350509E-02      0.2345770448E-01
          0                 7           1            31   29     2       0.1830987948E-04      31   29    2         0.1046445852E-02      0.2091833450E-01
          0                 8           1            30   30     2       0.3122909485E-04      31   29    2         0.9378911210E-03      0.1866409080E-01
          0                 9           1            31   29     2       0.1385335795E-04      31   29    2         0.8030251663E-03      0.1666969194E-01
          0                10           1            30   30     2       0.2447128719E-04      31   29    2         0.7340586304E-03      0.1483783548E-01
                                                   Max.-Head-Change                         Max.-Flux-Residual
  Residual-Control   Outer-Iter.   Inner-Iter.     Column Row Layer    Maximum-Head-Change  Column Row Layer    Maximum-Flux-Residual          L2-NORM 
          0                11           1            31   29     2       0.1082772416E-04      46   27    1         0.6431534258E-03      0.1327496925E-01
          0                12           1            30   30     2       0.1900454464E-04      30   30    2         0.5810105018E-03      0.1181212112E-01
          0                13           1            31   29     2       0.8635245158E-05      46   27    1         0.5401644965E-03      0.1058943093E-01

    ------------------------------------------------
       NWT REQUIRED           13 OUTER ITERATIONS 
       AND A TOTAL OF         14 INNER ITERATIONS.
    ------------------------------------------------

 OUTPUT CONTROL FOR STRESS PERIOD    1   TIME STEP   77
    SAVE HEAD FOR ALL LAYERS
 SOLVING FOR ZETA FOR LAYER     1 ZONE     2

     973 UPPER PART EQS.       972 LOWER PART EQS.    BAND WIDTH + 1 =   46
 STRESS PERIOD=  1 TIMESTEP= 77 LAYER=  1 ZONE=  2 ACTIVE CELLS= 1945 NUMBER OF EQUATIONS=    1945
 UBUDSV SAVING "      ZETASRF  1" ON UNIT 55 AT TIME STEP 77, STRESS PERIOD    1

 HEAD WILL BE SAVED ON UNIT   51 AT END OF TIME STEP   77, STRESS PERIOD    1
 
 SOLVING FOR HEAD 
                                                   Max.-Head-Change                         Max.-Flux-Residual
  Residual-Control   Outer-Iter.   Inner-Iter.     Column Row Layer    Maximum-Head-Change  Column Row Layer    Maximum-Flux-Residual          L2-NORM 
          0                 1           2            32   36     1       0.1371254966E-02      23   10    1         0.5634055418E+00      0.5974806268E+01
          0                 2           1            43   17     2       0.6488633237E-04      44   16    2         0.3726799516E-02      0.7701638750E-01
          0                 3           1            22   19     1       0.4058008060E-04      49   40    1         0.2393393740E-02      0.5161918907E-01
          0                 4           1            26   23     1       0.4822647242E-04      24   20    2         0.1811995247E-02      0.4429607428E-01
          0                 5           1            30   26     2       0.3363585741E-04      49   24    1         0.1779325433E-02      0.3930703742E-01
          0                 6           1            29   28     1       0.4474737972E-04      29   27    2         0.1560527321E-02      0.3527829779E-01
          0                 7           1            31   29     2       0.2802563243E-04      31   29    2         0.1479897199E-02      0.3165816246E-01
          0                 8           1            31   30     1       0.3915972975E-04      31   29    2         0.1348111437E-02      0.2848334434E-01
          0                 9           1            30   30     2       0.2225833874E-04      30   30    2         0.1210925898E-02      0.2558191320E-01
          0                10           1            31   30     1       0.3357378745E-04      31   29    2         0.1118339364E-02      0.2300582831E-01
                                                   Max.-Head-Change                         Max.-Flux-Residual
  Residual-Control   Outer-Iter.   Inner-Iter.     Column Row Layer    Maximum-Head-Change  Column Row Layer    Maximum-Flux-Residual          L2-NORM 
          0                11           1            30   30     2       0.1742538906E-04      46   35    1         0.9892069122E-03      0.2064663438E-01
          0                12           1            30   30     2       0.2846276011E-04      31   29    2         0.9109816784E-03      0.1853508432E-01
          0                13           1            30   30     2       0.1359002835E-04      46   35    1         0.8583287897E-03      0.1661030177E-01
          0                14           1            30   30     2       0.2383815477E-04      31   29    2         0.7342962925E-03      0.1487740247E-01
          0                15           1            31   31     2       0.1061004719E-04      46   35    1         0.7307905425E-03      0.1331038059E-01
          0                16           1            31   31     2       0.1970921482E-04      31   29    2         0.5877047289E-03      0.1189350704E-01
          0                17           1            31   31     2       0.8307770129E-05      46   35    1         0.6099518284E-03      0.1062397157E-01

    ------------------------------------------------
       NWT REQUIRED           17 OUTER ITERATIONS 
       AND A TOTAL OF         18 INNER ITERATIONS.
    ------------------------------------------------

 OUTPUT CONTROL FOR STRESS PERIOD    1   TIME STEP   78
    SAVE HEAD FOR ALL LAYERS
 SOLVING FOR ZETA FOR LAYER     1 ZONE     2

     949 UPPER PART EQS.       956 LOWER PART EQS.    BAND WIDTH + 1 =   44
 STRESS PERIOD=  1 TIMESTEP= 78 LAYER=  1 ZONE=  2 ACTIVE CELLS= 1905 NUMBER OF EQUATIONS=    1905
 UBUDSV SAVING "      ZETASRF  1" ON UNIT 55 AT TIME STEP 78, STRESS PERIOD    1

 HEAD WILL BE SAVED ON UNIT   51 AT END OF TIME STEP   78, STRESS PERIOD    1
 
 SOLVING FOR HEAD 
                                                   Max.-Head-Change                         Max.-Flux-Residual
  Residual-Control   Outer-Iter.   Inner-Iter.     Column Row Layer    Maximum-Head-Change  Column Row Layer    Maximum-Flux-Residual          L2-NORM 
          0                 1           2            33   52     1       0.1368062100E-02      10   34    1         0.5948005020E+00      0.6461318098E+01
          0                 2           1            34   54     2      -0.5171898159E-04      22   51    1        -0.4027009746E-02      0.7125916035E-01
          0                 3           1            36   23     1       0.2291195193E-04      42   51    1        -0.1964956153E-02      0.3576306041E-01
          0                 4           1            31   26     1       0.3615983650E-04      33   23    2         0.1253044094E-02      0.2656838658E-01
          0                 5           1            31   29     2       0.2236708649E-04      31   29    2         0.1251723582E-02      0.2254105458E-01
          0                 6           1            31   29     2       0.3441004279E-04      31   29    2         0.1084821376E-02      0.2004587431E-01
          0                 7           1            31   29     2       0.1601553091E-04      31   29    2         0.9167938720E-03      0.1790730973E-01
          0                 8           1            30   30     2       0.2714316562E-04      31   29    2         0.8179778016E-03      0.1591232850E-01
          0                 9           1            31   29     2       0.1200720929E-04      31   29    2         0.6898942498E-03      0.1427692667E-01
          0                10           1            30   30     2       0.2048591049E-04      31   29    2         0.6294259017E-03      0.1264217091E-01
          0                11           1            31   29     2       0.9502924711E-05      47   29    2         0.5511603772E-03      0.1138184287E-01

    ------------------------------------------------
       NWT REQUIRED           11 OUTER ITERATIONS 
       AND A TOTAL OF         12 INNER ITERATIONS.
    ------------------------------------------------

 OUTPUT CONTROL FOR STRESS PERIOD    1   TIME STEP   79
    SAVE HEAD FOR ALL LAYERS
 SOLVING FOR ZETA FOR LAYER     1 ZONE     2

     981 UPPER PART EQS.       972 LOWER PART EQS.    BAND WIDTH + 1 =   44
 STRESS PERIOD=  1 TIMESTEP= 79 LAYER=  1 ZONE=  2 ACTIVE CELLS= 1953 NUMBER OF EQUATIONS=    1953
 UBUDSV SAVING "      ZETASRF  1" ON UNIT 55 AT TIME STEP 79, STRESS PERIOD    1

 HEAD WILL BE SAVED ON UNIT   51 AT END OF TIME STEP   79, STRESS PERIOD    1
 
 SOLVING FOR HEAD 
                                                   Max.-Head-Change                         Max.-Flux-Residual
  Residual-Control   Outer-Iter.   Inner-Iter.     Column Row Layer    Maximum-Head-Change  Column Row Layer    Maximum-Flux-Residual          L2-NORM 
          0                 1           2            39   52     1       0.1377531126E-02      52   25    1         0.5857649256E+00      0.6064832530E+01
          0                 2           1            43   17     2       0.6270684885E-04      44   16    2         0.3687650533E-02      0.7472816333E-01
          0                 3           1            22   19     1       0.3882481806E-04      49   40    1         0.2349512862E-02      0.4955574294E-01
          0                 4           1            26   23     1       0.4651974764E-04      24   20    2         0.1742746291E-02      0.4239382733E-01
          0                 5           1            30   26     2       0.3237440129E-04      49   24    1         0.1826573605E-02      0.3759475400E-01
          0                 6           1            29   28     1       0.4296331112E-04      29   27    2         0.1498754792E-02      0.3373051421E-01
          0                 7           1            31   29     2       0.2692856377E-04      49   24    1         0.1505589105E-02      0.3027152237E-01
          0                 8           1            31   30     1       0.3721199893E-04      31   29    2         0.1289978322E-02      0.2722708359E-01
          0                 9           1            30   30     2       0.2147991648E-04      49   24    1         0.1234388648E-02      0.2446292185E-01
          0                10           1            31   30     1       0.3155283188E-04      31   29    2         0.1069281853E-02      0.2200041647E-01
                                                   Max.-Head-Change                         Max.-Flux-Residual
  Residual-Control   Outer-Iter.   Inner-Iter.     Column Row Layer    Maximum-Head-Change  Column Row Layer    Maximum-Flux-Residual          L2-NORM 
          0                11           1            30   30     2       0.1695059778E-04      49   24    1         0.1008652107E-02      0.1976153690E-01
          0                12           1            30   30     2       0.2641027707E-04      31   29    2         0.8717170354E-03      0.1775254196E-01
          0                13           1            30   30     2       0.1335479836E-04      49   24    1         0.8190873328E-03      0.1593560549E-01
          0                14           1            30   30     2       0.2186131734E-04      31   29    2         0.7045252775E-03      0.1429495039E-01
          0                15           1            31   31     2       0.1054809113E-04      46   35    1         0.6702926968E-03      0.1282273521E-01
          0                16           1            30   30     2       0.1790001005E-04      31   29    2         0.5665492490E-03      0.1148692975E-01
          0                17           1            31   31     2       0.8371868830E-05      46   35    1         0.5597004396E-03      0.1029820365E-01

    ------------------------------------------------
       NWT REQUIRED           17 OUTER ITERATIONS 
       AND A TOTAL OF         18 INNER ITERATIONS.
    ------------------------------------------------

 OUTPUT CONTROL FOR STRESS PERIOD    1   TIME STEP   80
    SAVE HEAD FOR ALL LAYERS
 SOLVING FOR ZETA FOR LAYER     1 ZONE     2

     945 UPPER PART EQS.       956 LOWER PART EQS.    BAND WIDTH + 1 =   44
 STRESS PERIOD=  1 TIMESTEP= 80 LAYER=  1 ZONE=  2 ACTIVE CELLS= 1901 NUMBER OF EQUATIONS=    1901
 UBUDSV SAVING "      ZETASRF  1" ON UNIT 55 AT TIME STEP 80, STRESS PERIOD    1

 HEAD WILL BE SAVED ON UNIT   51 AT END OF TIME STEP   80, STRESS PERIOD    1
 
 SOLVING FOR HEAD 
                                                   Max.-Head-Change                         Max.-Flux-Residual
  Residual-Control   Outer-Iter.   Inner-Iter.     Column Row Layer    Maximum-Head-Change  Column Row Layer    Maximum-Flux-Residual          L2-NORM 
          0                 1           2            33   52     1       0.1417511696E-02      28   10    1         0.6233211919E+00      0.6494801292E+01
          0                 2           1            35   53     2      -0.5336488539E-04      22   51    1        -0.4125927027E-02      0.7077714296E-01
          0                 3           1            36   23     1       0.2060477698E-04      42   51    1        -0.2055569247E-02      0.3372159865E-01
          0                 4           1            32   29     1       0.3220631546E-04      34   34    2         0.1152835655E-02      0.2357340853E-01
          0                 5           1            31   29     2       0.1979933735E-04      31   29    2         0.1139186057E-02      0.1932009127E-01
          0                 6           1            31   29     2       0.3069001719E-04      31   29    2         0.9759711311E-03      0.1698685042E-01
          0                 7           1            31   29     2       0.1375876745E-04      31   29    2         0.7993515154E-03      0.1507077582E-01
          0                 8           1            30   30     2       0.2420584872E-04      31   29    2         0.7086660887E-03      0.1336969541E-01
          0                 9           1            31   29     2       0.1003939132E-04      31   29    2         0.5814062392E-03      0.1198311416E-01
          0                10           1            30   30     2       0.1758188464E-04      31   29    2         0.5300501947E-03      0.1056313515E-01
          0                11           1            31   29     2       0.7930647883E-05      46   27    1         0.4727157643E-03      0.9524952223E-02

    ------------------------------------------------
       NWT REQUIRED           11 OUTER ITERATIONS 
       AND A TOTAL OF         12 INNER ITERATIONS.
    ------------------------------------------------

 OUTPUT CONTROL FOR STRESS PERIOD    1   TIME STEP   81
    SAVE HEAD FOR ALL LAYERS
 SOLVING FOR ZETA FOR LAYER     1 ZONE     2

     981 UPPER PART EQS.       972 LOWER PART EQS.    BAND WIDTH + 1 =   44
 STRESS PERIOD=  1 TIMESTEP= 81 LAYER=  1 ZONE=  2 ACTIVE CELLS= 1953 NUMBER OF EQUATIONS=    1953
 UBUDSV SAVING "      ZETASRF  1" ON UNIT 55 AT TIME STEP 81, STRESS PERIOD    1

 HEAD WILL BE SAVED ON UNIT   51 AT END OF TIME STEP   81, STRESS PERIOD    1
 
 SOLVING FOR HEAD 
                                                   Max.-Head-Change                         Max.-Flux-Residual
  Residual-Control   Outer-Iter.   Inner-Iter.     Column Row Layer    Maximum-Head-Change  Column Row Layer    Maximum-Flux-Residual          L2-NORM 
          0                 1           2            38   52     1       0.1398871335E-02      52   25    1         0.6043460376E+00      0.6170714256E+01
          0                 2           1            43   17     2       0.5872776885E-04      18   14    2         0.3555002247E-02      0.7133474104E-01
          0                 3           1            22   19     1       0.3551938008E-04      49   40    1         0.2236596338E-02      0.4588585049E-01
          0                 4           1            26   23     1       0.4347532663E-04      24   20    2         0.1619871277E-02      0.3888184586E-01
          0                 5           1            30   26     2       0.2936872876E-04      49   24    1         0.1582060654E-02      0.3441669294E-01
          0                 6           1            30   27     1       0.4059264748E-04      30   26    2         0.1379017811E-02      0.3083807023E-01
          0                 7           1            31   29     2       0.2410107398E-04      31   29    2         0.1294723762E-02      0.2766268670E-01
          0                 8           1            31   29     2       0.3530626434E-04      31   29    2         0.1180797613E-02      0.2482915164E-01
          0                 9           1            30   30     2       0.1906304277E-04      30   30    2         0.1053080333E-02      0.2228985143E-01
          0                10           1            31   29     2       0.2999224013E-04      31   29    2         0.9744413321E-03      0.1999393371E-01
                                                   Max.-Head-Change                         Max.-Flux-Residual
  Residual-Control   Outer-Iter.   Inner-Iter.     Column Row Layer    Maximum-Head-Change  Column Row Layer    Maximum-Flux-Residual          L2-NORM 
          0                11           1            30   30     2       0.1494873435E-04      49   40    1         0.8716047402E-03      0.1793815127E-01
          0                12           1            30   30     2       0.2507260102E-04      31   29    2         0.7903282955E-03      0.1606434518E-01
          0                13           1            30   30     2       0.1171362733E-04      49   40    1         0.7143617575E-03      0.1439878865E-01
          0                14           1            30   30     2       0.2067528510E-04      31   29    2         0.6350983815E-03      0.1287061365E-01
          0                15           1            31   31     2       0.9203317769E-05      46   35    1         0.6041080299E-03      0.1152574537E-01

    ------------------------------------------------
       NWT REQUIRED           15 OUTER ITERATIONS 
       AND A TOTAL OF         16 INNER ITERATIONS.
    ------------------------------------------------

 OUTPUT CONTROL FOR STRESS PERIOD    1   TIME STEP   82
    SAVE HEAD FOR ALL LAYERS
 SOLVING FOR ZETA FOR LAYER     1 ZONE     2

     945 UPPER PART EQS.       956 LOWER PART EQS.    BAND WIDTH + 1 =   44
 STRESS PERIOD=  1 TIMESTEP= 82 LAYER=  1 ZONE=  2 ACTIVE CELLS= 1901 NUMBER OF EQUATIONS=    1901
 UBUDSV SAVING "      ZETASRF  1" ON UNIT 55 AT TIME STEP 82, STRESS PERIOD    1

 HEAD WILL BE SAVED ON UNIT   51 AT END OF TIME STEP   82, STRESS PERIOD    1
 
 SOLVING FOR HEAD 
                                                   Max.-Head-Change                         Max.-Flux-Residual
  Residual-Control   Outer-Iter.   Inner-Iter.     Column Row Layer    Maximum-Head-Change  Column Row Layer    Maximum-Flux-Residual          L2-NORM 
          0                 1           2            33   52     1       0.1449905819E-02      34   10    1         0.6424108115E+00      0.6638881374E+01
          0                 2           1            35   53     2      -0.5426366071E-04      22   51    1        -0.4125207024E-02      0.7057240566E-01
          0                 3           1            35   24     1       0.1969415712E-04      42   51    1        -0.2093311157E-02      0.3298506944E-01
          0                 4           1            32   29     1       0.3067843353E-04      31   33    2         0.1126116961E-02      0.2226048087E-01
          0                 5           1            31   29     2       0.1864220559E-04      31   29    2         0.1089643535E-02      0.1773082875E-01
          0                 6           1            30   30     2       0.2803903006E-04      31   29    2         0.9243004845E-03      0.1539259392E-01
          0                 7           1            31   29     2       0.1289336924E-04      31   29    2         0.7456211332E-03      0.1356897695E-01
          0                 8           1            30   30     2       0.2184319735E-04      31   29    2         0.6557211553E-03      0.1203648182E-01
          0                 9           1            31   29     2       0.9324706680E-05      31   29    2         0.5325165625E-03      0.1079846118E-01

    ------------------------------------------------
       NWT REQUIRED            9 OUTER ITERATIONS 
       AND A TOTAL OF         10 INNER ITERATIONS.
    ------------------------------------------------

 OUTPUT CONTROL FOR STRESS PERIOD    1   TIME STEP   83
    SAVE HEAD FOR ALL LAYERS
 SOLVING FOR ZETA FOR LAYER     1 ZONE     2

     985 UPPER PART EQS.       972 LOWER PART EQS.    BAND WIDTH + 1 =   46
 STRESS PERIOD=  1 TIMESTEP= 83 LAYER=  1 ZONE=  2 ACTIVE CELLS= 1957 NUMBER OF EQUATIONS=    1957
 UBUDSV SAVING "      ZETASRF  1" ON UNIT 55 AT TIME STEP 83, STRESS PERIOD    1

 HEAD WILL BE SAVED ON UNIT   51 AT END OF TIME STEP   83, STRESS PERIOD    1
 
 SOLVING FOR HEAD 
                                                   Max.-Head-Change                         Max.-Flux-Residual
  Residual-Control   Outer-Iter.   Inner-Iter.     Column Row Layer    Maximum-Head-Change  Column Row Layer    Maximum-Flux-Residual          L2-NORM 
          0                 1           2            38   52     1       0.1407848808E-02      52   25    1         0.6145245936E+00      0.6240246802E+01
          0                 2           1            43   17     2       0.5721812276E-04      18   14    2         0.3519552842E-02      0.6999294766E-01
          0                 3           1            22   19     1       0.3459344239E-04      49   40    1         0.2178618723E-02      0.4478316612E-01
          0                 4           1            26   23     1       0.4268020570E-04      24   20    2         0.1586095501E-02      0.3786478973E-01
          0                 5           1            30   26     2       0.2884502068E-04      31   25    2         0.1512602916E-02      0.3350371710E-01
          0                 6           1            30   27     1       0.3980023400E-04      30   26    2         0.1352105096E-02      0.3001305078E-01
          0                 7           1            31   29     2       0.2354104016E-04      31   29    2         0.1264087353E-02      0.2692602350E-01
          0                 8           1            31   29     2       0.3443265363E-04      31   29    2         0.1152227408E-02      0.2416005325E-01
          0                 9           1            30   30     2       0.1860416606E-04      49   40    1         0.1037579492E-02      0.2169340390E-01
          0                10           1            31   29     2       0.2914215250E-04      31   29    2         0.9494611179E-03      0.1945402884E-01
                                                   Max.-Head-Change                         Max.-Flux-Residual
  Residual-Control   Outer-Iter.   Inner-Iter.     Column Row Layer    Maximum-Head-Change  Column Row Layer    Maximum-Flux-Residual          L2-NORM 
          0                11           1            30   30     2       0.1461027746E-04      49   40    1         0.8601188194E-03      0.1745870996E-01
          0                12           1            30   30     2       0.2425346182E-04      31   29    2         0.7696769673E-03      0.1563425908E-01
          0                13           1            30   30     2       0.1147817941E-04      49   40    1         0.7047789383E-03      0.1401998418E-01
          0                14           1            30   30     2       0.1991882174E-04      31   29    2         0.6186626896E-03      0.1253527600E-01
          0                15           1            30   30     2       0.9049335505E-05      48   37    1         0.5799987954E-03      0.1123328867E-01

    ------------------------------------------------
       NWT REQUIRED           15 OUTER ITERATIONS 
       AND A TOTAL OF         16 INNER ITERATIONS.
    ------------------------------------------------

 OUTPUT CONTROL FOR STRESS PERIOD    1   TIME STEP   84
    SAVE HEAD FOR ALL LAYERS
 SOLVING FOR ZETA FOR LAYER     1 ZONE     2

     945 UPPER PART EQS.       956 LOWER PART EQS.    BAND WIDTH + 1 =   44
 STRESS PERIOD=  1 TIMESTEP= 84 LAYER=  1 ZONE=  2 ACTIVE CELLS= 1901 NUMBER OF EQUATIONS=    1901
 UBUDSV SAVING "      ZETASRF  1" ON UNIT 55 AT TIME STEP 84, STRESS PERIOD    1

 HEAD WILL BE SAVED ON UNIT   51 AT END OF TIME STEP   84, STRESS PERIOD    1
 
 SOLVING FOR HEAD 
                                                   Max.-Head-Change                         Max.-Flux-Residual
  Residual-Control   Outer-Iter.   Inner-Iter.     Column Row Layer    Maximum-Head-Change  Column Row Layer    Maximum-Flux-Residual          L2-NORM 
          0                 1           2            33   52     1       0.1465948806E-02      34   10    1         0.6525017779E+00      0.6623465653E+01
          0                 2           1            35   53     2      -0.5517347040E-04      22   51    1        -0.4129931510E-02      0.7019381787E-01
          0                 3           1            36   27     1       0.1823884064E-04      42   51    1        -0.2135144590E-02      0.3198193131E-01
          0                 4           1            31   30     1       0.2799375206E-04      32   32    2         0.1056876408E-02      0.2053542341E-01
          0                 5           1            31   29     2       0.1668223175E-04      31   29    2         0.1003336023E-02      0.1568507072E-01
          0                 6           1            30   30     2       0.2442884534E-04      31   29    2         0.8404564013E-03      0.1328047554E-01
          0                 7           1            31   29     2       0.1148747580E-04      31   29    2         0.6643313758E-03      0.1156476886E-01
          0                 8           1            31   29     2       0.1835876596E-04      31   29    2         0.5773104206E-03      0.1020450773E-01
          0                 9           1            31   29     2       0.8257989792E-05      31   29    2         0.4631196474E-03      0.9157094098E-02

    ------------------------------------------------
       NWT REQUIRED            9 OUTER ITERATIONS 
       AND A TOTAL OF         10 INNER ITERATIONS.
    ------------------------------------------------

 OUTPUT CONTROL FOR STRESS PERIOD    1   TIME STEP   85
    SAVE HEAD FOR ALL LAYERS
 SOLVING FOR ZETA FOR LAYER     1 ZONE     2

     985 UPPER PART EQS.       972 LOWER PART EQS.    BAND WIDTH + 1 =   46
 STRESS PERIOD=  1 TIMESTEP= 85 LAYER=  1 ZONE=  2 ACTIVE CELLS= 1957 NUMBER OF EQUATIONS=    1957
 UBUDSV SAVING "      ZETASRF  1" ON UNIT 55 AT TIME STEP 85, STRESS PERIOD    1

 HEAD WILL BE SAVED ON UNIT   51 AT END OF TIME STEP   85, STRESS PERIOD    1
 
 SOLVING FOR HEAD 
                                                   Max.-Head-Change                         Max.-Flux-Residual
  Residual-Control   Outer-Iter.   Inner-Iter.     Column Row Layer    Maximum-Head-Change  Column Row Layer    Maximum-Flux-Residual          L2-NORM 
          0                 1           2            38   52     1       0.1403722738E-02      52   25    1         0.6168132913E+00      0.6281411152E+01
          0                 2           1            43   17     2       0.5437085475E-04      45   15    2         0.3435044799E-02      0.6739588054E-01
          0                 3           1            22   19     1       0.3220597393E-04      49   40    1         0.2077532421E-02      0.4201769709E-01
          0                 4           1            24   22     2       0.4005885492E-04      24   20    2         0.1491873649E-02      0.3521690928E-01
          0                 5           1            30   26     2       0.2668440047E-04      49   40    1         0.1452423488E-02      0.3108353350E-01
          0                 6           1            30   27     1       0.3740724719E-04      30   26    2         0.1258756847E-02      0.2783043618E-01
          0                 7           1            31   29     2       0.2166128441E-04      49   40    1         0.1244427031E-02      0.2495086548E-01
          0                 8           1            31   29     2       0.3234818378E-04      31   29    2         0.1068397125E-02      0.2237357385E-01
          0                 9           1            30   30     2       0.1707400822E-04      49   40    1         0.1045698839E-02      0.2007734756E-01
          0                10           1            31   29     2       0.2736256692E-04      31   29    2         0.8786965445E-03      0.1798907016E-01
                                                   Max.-Head-Change                         Max.-Flux-Residual
  Residual-Control   Outer-Iter.   Inner-Iter.     Column Row Layer    Maximum-Head-Change  Column Row Layer    Maximum-Flux-Residual          L2-NORM 
          0                11           1            30   30     2       0.1338866024E-04      49   40    1         0.8608386640E-03      0.1613471597E-01
          0                12           1            31   29     2       0.2272339690E-04      31   29    2         0.7108130163E-03      0.1443310553E-01
          0                13           1            30   30     2       0.1050840754E-04      49   40    1         0.6958909302E-03      0.1293582612E-01
          0                14           1            30   30     2       0.1860488499E-04      31   29    2         0.5701096196E-03      0.1155206310E-01
          0                15           1            30   30     2       0.8280972130E-05      49   40    1         0.5540991510E-03      0.1034736202E-01

    ------------------------------------------------
       NWT REQUIRED           15 OUTER ITERATIONS 
       AND A TOTAL OF         16 INNER ITERATIONS.
    ------------------------------------------------

 OUTPUT CONTROL FOR STRESS PERIOD    1   TIME STEP   86
    SAVE HEAD FOR ALL LAYERS
 SOLVING FOR ZETA FOR LAYER     1 ZONE     2

     945 UPPER PART EQS.       956 LOWER PART EQS.    BAND WIDTH + 1 =   44
 STRESS PERIOD=  1 TIMESTEP= 86 LAYER=  1 ZONE=  2 ACTIVE CELLS= 1901 NUMBER OF EQUATIONS=    1901
 UBUDSV SAVING "      ZETASRF  1" ON UNIT 55 AT TIME STEP 86, STRESS PERIOD    1

 HEAD WILL BE SAVED ON UNIT   51 AT END OF TIME STEP   86, STRESS PERIOD    1
 
 SOLVING FOR HEAD 
                                                   Max.-Head-Change                         Max.-Flux-Residual
  Residual-Control   Outer-Iter.   Inner-Iter.     Column Row Layer    Maximum-Head-Change  Column Row Layer    Maximum-Flux-Residual          L2-NORM 
          0                 1           2            33   52     1       0.1467622780E-02      52   34    1         0.6545384192E+00      0.6638008871E+01
          0                 2           1            35   53     2      -0.5588796755E-04      30   50    2        -0.4133702741E-02      0.6965806735E-01
          0                 3           1            36   27     1       0.1678690206E-04      42   51    1        -0.2168061091E-02      0.3104288582E-01
          0                 4           1            31   30     1       0.2504206584E-04      32   33    1         0.9734046249E-03      0.1904570011E-01
          0                 5           1            31   29     2       0.1473882580E-04      31   29    2         0.9088105487E-03      0.1379695533E-01
          0                 6           1            30   30     2       0.2068010629E-04      31   29    2         0.7494709781E-03      0.1125359738E-01
          0                 7           1            31   29     2       0.9930695746E-05      31   29    2         0.5818624824E-03      0.9592189962E-02

    ------------------------------------------------
       NWT REQUIRED            7 OUTER ITERATIONS 
       AND A TOTAL OF          8 INNER ITERATIONS.
    ------------------------------------------------

 OUTPUT CONTROL FOR STRESS PERIOD    1   TIME STEP   87
    SAVE HEAD FOR ALL LAYERS
 SOLVING FOR ZETA FOR LAYER     1 ZONE     2

     985 UPPER PART EQS.       972 LOWER PART EQS.    BAND WIDTH + 1 =   46
 STRESS PERIOD=  1 TIMESTEP= 87 LAYER=  1 ZONE=  2 ACTIVE CELLS= 1957 NUMBER OF EQUATIONS=    1957
 UBUDSV SAVING "      ZETASRF  1" ON UNIT 55 AT TIME STEP 87, STRESS PERIOD    1

 HEAD WILL BE SAVED ON UNIT   51 AT END OF TIME STEP   87, STRESS PERIOD    1
 
 SOLVING FOR HEAD 
                                                   Max.-Head-Change                         Max.-Flux-Residual
  Residual-Control   Outer-Iter.   Inner-Iter.     Column Row Layer    Maximum-Head-Change  Column Row Layer    Maximum-Flux-Residual          L2-NORM 
          0                 1           2            38   52     1       0.1388307840E-02      10   25    1         0.6122385996E+00      0.6305432113E+01
          0                 2           1            43   17     2       0.5252551586E-04      45   15    2         0.3390255575E-02      0.6588520899E-01
          0                 3           1            22   19     1       0.3122609066E-04      49   40    1         0.1966621427E-02      0.4068220948E-01
          0                 4           1            26   23     1       0.3931237608E-04      24   20    2         0.1458009483E-02      0.3400126231E-01
          0                 5           1            30   26     2       0.2602061729E-04      31   25    2         0.1374046781E-02      0.2997648879E-01
          0                 6           1            30   27     1       0.3654579062E-04      30   26    2         0.1225973465E-02      0.2684000324E-01
          0                 7           1            31   29     2       0.2094129071E-04      31   29    2         0.1132364545E-02      0.2403645149E-01
          0                 8           1            30   28     2       0.3133829200E-04      31   29    2         0.1032076915E-02      0.2155632817E-01
          0                 9           1            30   30     2       0.1646850736E-04      30   30    2         0.9145372265E-03      0.1932654753E-01
          0                10           1            31   29     2       0.2638924314E-04      31   29    2         0.8467747489E-03      0.1732124144E-01
                                                   Max.-Head-Change                         Max.-Flux-Residual
  Residual-Control   Outer-Iter.   Inner-Iter.     Column Row Layer    Maximum-Head-Change  Column Row Layer    Maximum-Flux-Residual          L2-NORM 
          0                11           1            30   30     2       0.1291004503E-04      30   30    2         0.7330403298E-03      0.1552472593E-01
          0                12           1            31   29     2       0.2185144563E-04      31   29    2         0.6841665421E-03      0.1389304479E-01
          0                13           1            30   30     2       0.1013834736E-04      48   37    1         0.6173335790E-03      0.1244521898E-01
          0                14           1            30   30     2       0.1784126746E-04      31   29    2         0.5484171141E-03      0.1111962912E-01
          0                15           1            30   30     2       0.7997548739E-05      48   37    1         0.5173922266E-03      0.9956944407E-02

    ------------------------------------------------
       NWT REQUIRED           15 OUTER ITERATIONS 
       AND A TOTAL OF         16 INNER ITERATIONS.
    ------------------------------------------------

 OUTPUT CONTROL FOR STRESS PERIOD    1   TIME STEP   88
    SAVE HEAD FOR ALL LAYERS
 SOLVING FOR ZETA FOR LAYER     1 ZONE     2

     945 UPPER PART EQS.       956 LOWER PART EQS.    BAND WIDTH + 1 =   44
 STRESS PERIOD=  1 TIMESTEP= 88 LAYER=  1 ZONE=  2 ACTIVE CELLS= 1901 NUMBER OF EQUATIONS=    1901
 UBUDSV SAVING "      ZETASRF  1" ON UNIT 55 AT TIME STEP 88, STRESS PERIOD    1

 HEAD WILL BE SAVED ON UNIT   51 AT END OF TIME STEP   88, STRESS PERIOD    1
 
 SOLVING FOR HEAD 
                                                   Max.-Head-Change                         Max.-Flux-Residual
  Residual-Control   Outer-Iter.   Inner-Iter.     Column Row Layer    Maximum-Head-Change  Column Row Layer    Maximum-Flux-Residual          L2-NORM 
          0                 1           2            33   52     1       0.1456805484E-02      34   52    1         0.6494026213E+00      0.6599234619E+01
          0                 2           1            35   53     2      -0.5640628718E-04      30   50    2        -0.4198009438E-02      0.6944986069E-01
          0                 3           1            47   47     2      -0.1768211500E-04      42   51    1        -0.2195946961E-02      0.3062822738E-01
          0                 4           1            31   30     1       0.2295550775E-04      32   33    1         0.9125872565E-03      0.1816974004E-01
          0                 5           1            31   29     2       0.1323155329E-04      31   29    2         0.8329487968E-03      0.1248996043E-01
          0                 6           1            30   30     2       0.1756049438E-04      31   29    2         0.6735614065E-03      0.9708372127E-02
          0                 7           1            31   29     2       0.8653918308E-05      31   29    2         0.5143345861E-03      0.7967850425E-02

    ------------------------------------------------
       NWT REQUIRED            7 OUTER ITERATIONS 
       AND A TOTAL OF          8 INNER ITERATIONS.
    ------------------------------------------------

 OUTPUT CONTROL FOR STRESS PERIOD    1   TIME STEP   89
    SAVE HEAD FOR ALL LAYERS
 SOLVING FOR ZETA FOR LAYER     1 ZONE     2

     985 UPPER PART EQS.       972 LOWER PART EQS.    BAND WIDTH + 1 =   46
 STRESS PERIOD=  1 TIMESTEP= 89 LAYER=  1 ZONE=  2 ACTIVE CELLS= 1957 NUMBER OF EQUATIONS=    1957
 UBUDSV SAVING "      ZETASRF  1" ON UNIT 55 AT TIME STEP 89, STRESS PERIOD    1

 HEAD WILL BE SAVED ON UNIT   51 AT END OF TIME STEP   89, STRESS PERIOD    1
 
 SOLVING FOR HEAD 
                                                   Max.-Head-Change                         Max.-Flux-Residual
  Residual-Control   Outer-Iter.   Inner-Iter.     Column Row Layer    Maximum-Head-Change  Column Row Layer    Maximum-Flux-Residual          L2-NORM 
          0                 1           2            25   52     1       0.1367354666E-02      52   25    1         0.6015371309E+00      0.6317649688E+01
          0                 2           1            44   16     2       0.5090613577E-04      45   15    2         0.3354206637E-02      0.6379543827E-01
          0                 3           1            22   19     1       0.2942192723E-04      49   24    1         0.1852710118E-02      0.3848169456E-01
          0                 4           1            24   22     2       0.3684325635E-04      24   20    2         0.1380321513E-02      0.3185952229E-01
          0                 5           1            30   26     2       0.2435582069E-04      31   25    2         0.1282528248E-02      0.2800791038E-01
          0                 6           1            30   27     1       0.3399414269E-04      30   26    2         0.1144877222E-02      0.2508097127E-01
          0                 7           1            31   29     2       0.1960666095E-04      29   27    2         0.1056743732E-02      0.2244172623E-01
          0                 8           1            30   28     2       0.2914459337E-04      31   29    2         0.9622536606E-03      0.2013610125E-01
          0                 9           1            30   30     2       0.1542908406E-04      31   29    2         0.8534921233E-03      0.1804180997E-01
          0                10           1            31   29     2       0.2451586822E-04      31   29    2         0.7900703089E-03      0.1618037557E-01
                                                   Max.-Head-Change                         Max.-Flux-Residual
  Residual-Control   Outer-Iter.   Inner-Iter.     Column Row Layer    Maximum-Head-Change  Column Row Layer    Maximum-Flux-Residual          L2-NORM 
          0                11           1            30   30     2       0.1210221400E-04      30   30    2         0.6847541606E-03      0.1449636322E-01
          0                12           1            31   29     2       0.2030014989E-04      31   29    2         0.6386483490E-03      0.1298203990E-01
          0                13           1            30   30     2       0.9512382212E-05      48   37    1         0.5589146164E-03      0.1162581851E-01

    ------------------------------------------------
       NWT REQUIRED           13 OUTER ITERATIONS 
       AND A TOTAL OF         14 INNER ITERATIONS.
    ------------------------------------------------

 OUTPUT CONTROL FOR STRESS PERIOD    1   TIME STEP   90
    SAVE HEAD FOR ALL LAYERS
 SOLVING FOR ZETA FOR LAYER     1 ZONE     2

     945 UPPER PART EQS.       956 LOWER PART EQS.    BAND WIDTH + 1 =   44
 STRESS PERIOD=  1 TIMESTEP= 90 LAYER=  1 ZONE=  2 ACTIVE CELLS= 1901 NUMBER OF EQUATIONS=    1901
 UBUDSV SAVING "      ZETASRF  1" ON UNIT 55 AT TIME STEP 90, STRESS PERIOD    1

 HEAD WILL BE SAVED ON UNIT   51 AT END OF TIME STEP   90, STRESS PERIOD    1
 
 SOLVING FOR HEAD 
                                                   Max.-Head-Change                         Max.-Flux-Residual
  Residual-Control   Outer-Iter.   Inner-Iter.     Column Row Layer    Maximum-Head-Change  Column Row Layer    Maximum-Flux-Residual          L2-NORM 
          0                 1           2            33   52     1       0.1435452105E-02      34   52    1         0.6381324948E+00      0.6544730793E+01
          0                 2           1            35   53     2      -0.5656671798E-04      30   50    2        -0.4228932656E-02      0.6956169376E-01
          0                 3           1            47   47     2      -0.1821205676E-04      42   51    1        -0.2207501353E-02      0.3084415490E-01
          0                 4           1            31   30     1       0.2297206326E-04      42   50    2        -0.9172979189E-03      0.1815037109E-01
          0                 5           1            31   29     2       0.1287926857E-04      31   29    2         0.8205910176E-03      0.1222553741E-01
          0                 6           1            30   30     2       0.1669852361E-04      31   29    2         0.6554466554E-03      0.9274755474E-02
          0                 7           1            31   29     2       0.8211993222E-05      31   29    2         0.4937993360E-03      0.7474810236E-02

    ------------------------------------------------
       NWT REQUIRED            7 OUTER ITERATIONS 
       AND A TOTAL OF          8 INNER ITERATIONS.
    ------------------------------------------------

 OUTPUT CONTROL FOR STRESS PERIOD    1   TIME STEP   91
    SAVE HEAD FOR ALL LAYERS
 SOLVING FOR ZETA FOR LAYER     1 ZONE     2

     985 UPPER PART EQS.       972 LOWER PART EQS.    BAND WIDTH + 1 =   46
 STRESS PERIOD=  1 TIMESTEP= 91 LAYER=  1 ZONE=  2 ACTIVE CELLS= 1957 NUMBER OF EQUATIONS=    1957
 UBUDSV SAVING "      ZETASRF  1" ON UNIT 55 AT TIME STEP 91, STRESS PERIOD    1

 HEAD WILL BE SAVED ON UNIT   51 AT END OF TIME STEP   91, STRESS PERIOD    1
 
 SOLVING FOR HEAD 
                                                   Max.-Head-Change                         Max.-Flux-Residual
  Residual-Control   Outer-Iter.   Inner-Iter.     Column Row Layer    Maximum-Head-Change  Column Row Layer    Maximum-Flux-Residual          L2-NORM 
          0                 1           2            25   52     1       0.1340100780E-02      25   10    1         0.5856557175E+00      0.6324595111E+01
          0                 2           1            44   16     2       0.5010901603E-04      45   15    2         0.3351488185E-02      0.6246117196E-01
          0                 3           1            22   19     1       0.2849358372E-04      13   24    1         0.1803547668E-02      0.3721366648E-01
          0                 4           1            24   22     2       0.3521360943E-04      24   20    2         0.1334157187E-02      0.3066058719E-01
          0                 5           1            30   26     2       0.2340191051E-04      31   25    2         0.1228785208E-02      0.2688188639E-01
          0                 6           1            30   27     1       0.3239785139E-04      30   26    2         0.1097737289E-02      0.2409046172E-01
          0                 7           1            31   29     2       0.1887405634E-04      30   26    2         0.1015524992E-02      0.2152374868E-01
          0                 8           1            30   28     2       0.2782591988E-04      31   29    2         0.9230193834E-03      0.1934098310E-01
          0                 9           1            30   30     2       0.1488127902E-04      31   29    2         0.8203863684E-03      0.1730494962E-01
          0                10           1            31   29     2       0.2339734625E-04      31   29    2         0.7588827237E-03      0.1554651106E-01
                                                   Max.-Head-Change                         Max.-Flux-Residual
  Residual-Control   Outer-Iter.   Inner-Iter.     Column Row Layer    Maximum-Head-Change  Column Row Layer    Maximum-Flux-Residual          L2-NORM 
          0                11           1            30   30     2       0.1169117589E-04      30   30    2         0.6588407542E-03      0.1390914478E-01
          0                12           1            31   29     2       0.1937091479E-04      31   29    2         0.6139986909E-03      0.1248079503E-01
          0                13           1            30   30     2       0.9204526466E-05      30   30    2         0.5272481637E-03      0.1116168362E-01

    ------------------------------------------------
       NWT REQUIRED           13 OUTER ITERATIONS 
       AND A TOTAL OF         14 INNER ITERATIONS.
    ------------------------------------------------

 OUTPUT CONTROL FOR STRESS PERIOD    1   TIME STEP   92
    SAVE HEAD FOR ALL LAYERS
 SOLVING FOR ZETA FOR LAYER     1 ZONE     2

     945 UPPER PART EQS.       956 LOWER PART EQS.    BAND WIDTH + 1 =   44
 STRESS PERIOD=  1 TIMESTEP= 92 LAYER=  1 ZONE=  2 ACTIVE CELLS= 1901 NUMBER OF EQUATIONS=    1901
 UBUDSV SAVING "      ZETASRF  1" ON UNIT 55 AT TIME STEP 92, STRESS PERIOD    1

 HEAD WILL BE SAVED ON UNIT   51 AT END OF TIME STEP   92, STRESS PERIOD    1
 
 SOLVING FOR HEAD 
                                                   Max.-Head-Change                         Max.-Flux-Residual
  Residual-Control   Outer-Iter.   Inner-Iter.     Column Row Layer    Maximum-Head-Change  Column Row Layer    Maximum-Flux-Residual          L2-NORM 
          0                 1           2            33   52     1       0.1404271760E-02      53   14    1        -0.6370689727E+00      0.6479664947E+01
          0                 2           1            45   51     2      -0.5693422165E-04      30   50    2        -0.4268552530E-02      0.6946589717E-01
          0                 3           1            47   47     2      -0.1886010614E-04      42   51    1        -0.2223525550E-02      0.3073272909E-01
          0                 4           1            31   31     2       0.2122203995E-04      42   50    2        -0.9672765612E-03      0.1770942346E-01
          0                 5           1            31   29     2       0.1147563367E-04      47   49    2        -0.7663303248E-03      0.1145233810E-01
          0                 6           1            30   30     2       0.1449468838E-04      31   29    2         0.5865262432E-03      0.8191591399E-02
          0                 7           1            31   29     2       0.6911170334E-05      31   29    2         0.4289190647E-03      0.6239786758E-02

    ------------------------------------------------
       NWT REQUIRED            7 OUTER ITERATIONS 
       AND A TOTAL OF          8 INNER ITERATIONS.
    ------------------------------------------------

 OUTPUT CONTROL FOR STRESS PERIOD    1   TIME STEP   93
    SAVE HEAD FOR ALL LAYERS
 SOLVING FOR ZETA FOR LAYER     1 ZONE     2

     985 UPPER PART EQS.       972 LOWER PART EQS.    BAND WIDTH + 1 =   46
 STRESS PERIOD=  1 TIMESTEP= 93 LAYER=  1 ZONE=  2 ACTIVE CELLS= 1957 NUMBER OF EQUATIONS=    1957
 UBUDSV SAVING "      ZETASRF  1" ON UNIT 55 AT TIME STEP 93, STRESS PERIOD    1

 HEAD WILL BE SAVED ON UNIT   51 AT END OF TIME STEP   93, STRESS PERIOD    1
 
 SOLVING FOR HEAD 
                                                   Max.-Head-Change                         Max.-Flux-Residual
  Residual-Control   Outer-Iter.   Inner-Iter.     Column Row Layer    Maximum-Head-Change  Column Row Layer    Maximum-Flux-Residual          L2-NORM 
          0                 1           2            25   52     1       0.1305526273E-02      52   25    1         0.5652756349E+00      0.6331934384E+01
          0                 2           1            44   16     2       0.4922038583E-04      45   15    2         0.3352228421E-02      0.6095489695E-01
          0                 3           1            22   19     1       0.2726560516E-04      13   24    1         0.1748396958E-02      0.3563820353E-01
          0                 4           1            23   21     2       0.3326082360E-04      22   18    2         0.1279565507E-02      0.2911304907E-01
          0                 5           1            31   25     2       0.2207768442E-04      32   24    2         0.1156992107E-02      0.2545924258E-01
          0                 6           1            30   27     1       0.3020569696E-04      30   26    2         0.1033310258E-02      0.2280138089E-01
          0                 7           1            29   27     2       0.1794364032E-04      30   26    2         0.9598755619E-03      0.2037062992E-01
          0                 8           1            30   28     2       0.2595308908E-04      29   27    2         0.8715399304E-03      0.1830579923E-01
          0                 9           1            30   30     2       0.1419141350E-04      31   29    2         0.7763377241E-03      0.1638557170E-01
          0                10           1            31   29     2       0.2180820543E-04      31   29    2         0.7174169731E-03      0.1472656077E-01
                                                   Max.-Head-Change                         Max.-Flux-Residual
  Residual-Control   Outer-Iter.   Inner-Iter.     Column Row Layer    Maximum-Head-Change  Column Row Layer    Maximum-Flux-Residual          L2-NORM 
          0                11           1            30   30     2       0.1119789006E-04      30   30    2         0.6248857970E-03      0.1318335480E-01
          0                12           1            31   29     2       0.1802342139E-04      31   29    2         0.5815879713E-03      0.1183803884E-01
          0                13           1            30   30     2       0.8846553134E-05      30   30    2         0.5014089151E-03      0.1059736605E-01

    ------------------------------------------------
       NWT REQUIRED           13 OUTER ITERATIONS 
       AND A TOTAL OF         14 INNER ITERATIONS.
    ------------------------------------------------

 OUTPUT CONTROL FOR STRESS PERIOD    1   TIME STEP   94
    SAVE HEAD FOR ALL LAYERS
 SOLVING FOR ZETA FOR LAYER     1 ZONE     2

     945 UPPER PART EQS.       956 LOWER PART EQS.    BAND WIDTH + 1 =   44
 STRESS PERIOD=  1 TIMESTEP= 94 LAYER=  1 ZONE=  2 ACTIVE CELLS= 1901 NUMBER OF EQUATIONS=    1901
 UBUDSV SAVING "      ZETASRF  1" ON UNIT 55 AT TIME STEP 94, STRESS PERIOD    1

 HEAD WILL BE SAVED ON UNIT   51 AT END OF TIME STEP   94, STRESS PERIOD    1
 
 SOLVING FOR HEAD 
                                                   Max.-Head-Change                         Max.-Flux-Residual
  Residual-Control   Outer-Iter.   Inner-Iter.     Column Row Layer    Maximum-Head-Change  Column Row Layer    Maximum-Flux-Residual          L2-NORM 
          0                 1           2            33   52     1       0.1365058314E-02      53   14    1        -0.6470479046E+00      0.6412522161E+01
          0                 2           1            45   51     2      -0.5877586710E-04      30   50    2        -0.4301596139E-02      0.6945545124E-01
          0                 3           1            47   47     2      -0.1945316631E-04      47   49    2        -0.2250143352E-02      0.3076754089E-01
          0                 4           1            31   31     2       0.1940219269E-04      42   50    2        -0.1016974878E-02      0.1750808163E-01
          0                 5           1            31   29     2       0.1019746231E-04      47   49    2        -0.7930358495E-03      0.1096258499E-01
          0                 6           1            30   30     2       0.1218434953E-04      31   29    2         0.5157104382E-03      0.7416975712E-02
          0                 7           1            31   29     2       0.5757815313E-05      31   29    2         0.3658670429E-03      0.5294801819E-02

    ------------------------------------------------
       NWT REQUIRED            7 OUTER ITERATIONS 
       AND A TOTAL OF          8 INNER ITERATIONS.
    ------------------------------------------------

 OUTPUT CONTROL FOR STRESS PERIOD    1   TIME STEP   95
    SAVE HEAD FOR ALL LAYERS
 SOLVING FOR ZETA FOR LAYER     1 ZONE     2

     985 UPPER PART EQS.       972 LOWER PART EQS.    BAND WIDTH + 1 =   46
 STRESS PERIOD=  1 TIMESTEP= 95 LAYER=  1 ZONE=  2 ACTIVE CELLS= 1957 NUMBER OF EQUATIONS=    1957
 UBUDSV SAVING "      ZETASRF  1" ON UNIT 55 AT TIME STEP 95, STRESS PERIOD    1

 HEAD WILL BE SAVED ON UNIT   51 AT END OF TIME STEP   95, STRESS PERIOD    1
 
 SOLVING FOR HEAD 
                                                   Max.-Head-Change                         Max.-Flux-Residual
  Residual-Control   Outer-Iter.   Inner-Iter.     Column Row Layer    Maximum-Head-Change  Column Row Layer    Maximum-Flux-Residual          L2-NORM 
          0                 1           2            31   32     1       0.1266296841E-02      36   10    1         0.5429033512E+00      0.6346340759E+01
          0                 2           1            44   16     2       0.4854787017E-04      45   15    2         0.3366163447E-02      0.5969200126E-01
          0                 3           1            22   19     1       0.2622575493E-04      13   24    1         0.1693443564E-02      0.3428404849E-01
          0                 4           1            23   21     2       0.3154799468E-04      22   18    2         0.1243175388E-02      0.2775064798E-01
          0                 5           1            31   25     2       0.2081061170E-04      32   24    2         0.1090708982E-02      0.2419496428E-01
          0                 6           1            30   27     1       0.2828539374E-04      30   26    2         0.9740435559E-03      0.2164049362E-01
          0                 7           1            29   27     2       0.1705432874E-04      30   26    2         0.9090763064E-03      0.1933185723E-01
          0                 8           1            30   28     2       0.2435997269E-04      29   27    2         0.8256535029E-03      0.1736850832E-01
          0                 9           1            31   29     2       0.1355550826E-04      31   29    2         0.7362796370E-03      0.1555030694E-01
          0                10           1            31   29     2       0.2037558757E-04      31   29    2         0.6799761869E-03      0.1397967135E-01
                                                   Max.-Head-Change                         Max.-Flux-Residual
  Residual-Control   Outer-Iter.   Inner-Iter.     Column Row Layer    Maximum-Head-Change  Column Row Layer    Maximum-Flux-Residual          L2-NORM 
          0                11           1            30   30     2       0.1075296382E-04      30   30    2         0.5942567690E-03      0.1252451272E-01
          0                12           1            31   29     2       0.1679977748E-04      31   29    2         0.5524321209E-03      0.1125336304E-01
          0                13           1            30   30     2       0.8538393293E-05      30   30    2         0.4782272434E-03      0.1008403760E-01

    ------------------------------------------------
       NWT REQUIRED           13 OUTER ITERATIONS 
       AND A TOTAL OF         14 INNER ITERATIONS.
    ------------------------------------------------

 OUTPUT CONTROL FOR STRESS PERIOD    1   TIME STEP   96
    SAVE HEAD FOR ALL LAYERS
 SOLVING FOR ZETA FOR LAYER     1 ZONE     2

     945 UPPER PART EQS.       956 LOWER PART EQS.    BAND WIDTH + 1 =   44
 STRESS PERIOD=  1 TIMESTEP= 96 LAYER=  1 ZONE=  2 ACTIVE CELLS= 1901 NUMBER OF EQUATIONS=    1901
 UBUDSV SAVING "      ZETASRF  1" ON UNIT 55 AT TIME STEP 96, STRESS PERIOD    1

 HEAD WILL BE SAVED ON UNIT   51 AT END OF TIME STEP   96, STRESS PERIOD    1
 
 SOLVING FOR HEAD 
                                                   Max.-Head-Change                         Max.-Flux-Residual
  Residual-Control   Outer-Iter.   Inner-Iter.     Column Row Layer    Maximum-Head-Change  Column Row Layer    Maximum-Flux-Residual          L2-NORM 
          0                 1           2            33   52     1       0.1319215635E-02      53   14    1        -0.6572155982E+00      0.6351112850E+01
          0                 2           1            45   51     2      -0.6051213850E-04      30   50    2        -0.4328554696E-02      0.6955569466E-01
          0                 3           1            47   47     2      -0.1998950521E-04      47   49    2        -0.2276228938E-02      0.3098472004E-01
          0                 4           1            43   49     2      -0.1820185156E-04      42   50    2        -0.1065858190E-02      0.1758600971E-01
          0                 5           1            31   29     2       0.9004439672E-05      47   49    2        -0.8203591250E-03      0.1081807550E-01

    ------------------------------------------------
       NWT REQUIRED            5 OUTER ITERATIONS 
       AND A TOTAL OF          6 INNER ITERATIONS.
    ------------------------------------------------

 OUTPUT CONTROL FOR STRESS PERIOD    1   TIME STEP   97
    SAVE HEAD FOR ALL LAYERS
 SOLVING FOR ZETA FOR LAYER     1 ZONE     2

     985 UPPER PART EQS.       972 LOWER PART EQS.    BAND WIDTH + 1 =   46
 STRESS PERIOD=  1 TIMESTEP= 97 LAYER=  1 ZONE=  2 ACTIVE CELLS= 1957 NUMBER OF EQUATIONS=    1957
 UBUDSV SAVING "      ZETASRF  1" ON UNIT 55 AT TIME STEP 97, STRESS PERIOD    1

 HEAD WILL BE SAVED ON UNIT   51 AT END OF TIME STEP   97, STRESS PERIOD    1
 
 SOLVING FOR HEAD 
                                                   Max.-Head-Change                         Max.-Flux-Residual
  Residual-Control   Outer-Iter.   Inner-Iter.     Column Row Layer    Maximum-Head-Change  Column Row Layer    Maximum-Flux-Residual          L2-NORM 
          0                 1           2            31   32     1       0.1258448238E-02      42   53    1        -0.5583999813E+00      0.6373164806E+01
          0                 2           1            44   16     2       0.4701739388E-04      45   15    2         0.3334617313E-02      0.5861824691E-01
          0                 3           1            21   18     1       0.2552319142E-04      13   24    1         0.1619726601E-02      0.3323505451E-01
          0                 4           1            23   21     2       0.3071577990E-04      22   18    2         0.1217275817E-02      0.2678173504E-01
          0                 5           1            30   25     1       0.2044989896E-04      32   24    2         0.1067360615E-02      0.2333418423E-01
          0                 6           1            30   27     1       0.2750312241E-04      30   26    2         0.9514938847E-03      0.2084607484E-01
          0                 7           1            29   27     2       0.1659234266E-04      30   26    2         0.8838786099E-03      0.1862965452E-01
          0                 8           1            30   28     2       0.2356038731E-04      29   27    2         0.8009136253E-03      0.1671368522E-01
          0                 9           1            31   29     2       0.1307213264E-04      29   27    2         0.7105188469E-03      0.1497813605E-01
          0                10           1            31   29     2       0.1966369217E-04      31   29    2         0.6553023644E-03      0.1344472379E-01
                                                   Max.-Head-Change                         Max.-Flux-Residual
  Residual-Control   Outer-Iter.   Inner-Iter.     Column Row Layer    Maximum-Head-Change  Column Row Layer    Maximum-Flux-Residual          L2-NORM 
          0                11           1            30   30     2       0.1034386284E-04      31   29    2         0.5720928995E-03      0.1205834373E-01
          0                12           1            31   29     2       0.1618603658E-04      31   29    2         0.5315749046E-03      0.1081762010E-01
          0                13           1            30   30     2       0.8214861859E-05      48   21    1         0.4791337101E-03      0.9705470801E-02

    ------------------------------------------------
       NWT REQUIRED           13 OUTER ITERATIONS 
       AND A TOTAL OF         14 INNER ITERATIONS.
    ------------------------------------------------

 OUTPUT CONTROL FOR STRESS PERIOD    1   TIME STEP   98
    SAVE HEAD FOR ALL LAYERS
 SOLVING FOR ZETA FOR LAYER     1 ZONE     2

     945 UPPER PART EQS.       956 LOWER PART EQS.    BAND WIDTH + 1 =   44
 STRESS PERIOD=  1 TIMESTEP= 98 LAYER=  1 ZONE=  2 ACTIVE CELLS= 1901 NUMBER OF EQUATIONS=    1901
 UBUDSV SAVING "      ZETASRF  1" ON UNIT 55 AT TIME STEP 98, STRESS PERIOD    1

 HEAD WILL BE SAVED ON UNIT   51 AT END OF TIME STEP   98, STRESS PERIOD    1
 
 SOLVING FOR HEAD 
                                                   Max.-Head-Change                         Max.-Flux-Residual
  Residual-Control   Outer-Iter.   Inner-Iter.     Column Row Layer    Maximum-Head-Change  Column Row Layer    Maximum-Flux-Residual          L2-NORM 
          0                 1           2            33   52     1       0.1267859981E-02      53   14    1        -0.6675630045E+00      0.6302991683E+01
          0                 2           1            45   51     2      -0.6214049591E-04      30   50    2        -0.4351849598E-02      0.6977851076E-01
          0                 3           1            47   47     2      -0.2047781619E-04      29   52    1        -0.2301251154E-02      0.3137378973E-01
          0                 4           1            43   49     2      -0.1902864672E-04      42   50    2        -0.1113822232E-02      0.1782555686E-01
          0                 5           1            31   29     2       0.7904514184E-05      47   49    2        -0.8457930647E-03      0.1090309082E-01

    ------------------------------------------------
       NWT REQUIRED            5 OUTER ITERATIONS 
       AND A TOTAL OF          6 INNER ITERATIONS.
    ------------------------------------------------

 OUTPUT CONTROL FOR STRESS PERIOD    1   TIME STEP   99
    SAVE HEAD FOR ALL LAYERS
 SOLVING FOR ZETA FOR LAYER     1 ZONE     2

     985 UPPER PART EQS.       972 LOWER PART EQS.    BAND WIDTH + 1 =   46
 STRESS PERIOD=  1 TIMESTEP= 99 LAYER=  1 ZONE=  2 ACTIVE CELLS= 1957 NUMBER OF EQUATIONS=    1957
 UBUDSV SAVING "      ZETASRF  1" ON UNIT 55 AT TIME STEP 99, STRESS PERIOD    1

 HEAD WILL BE SAVED ON UNIT   51 AT END OF TIME STEP   99, STRESS PERIOD    1
 
 SOLVING FOR HEAD 
                                                   Max.-Head-Change                         Max.-Flux-Residual
  Residual-Control   Outer-Iter.   Inner-Iter.     Column Row Layer    Maximum-Head-Change  Column Row Layer    Maximum-Flux-Residual          L2-NORM 
          0                 1           2            31   32     1       0.1245737181E-02      42   53    1        -0.5798290633E+00      0.6418924520E+01
          0                 2           1            45   15     2       0.4661563380E-04      45   15    2         0.3365448444E-02      0.5774108806E-01
          0                 3           1            21   18     1       0.2487761111E-04      13   24    1         0.1561377495E-02      0.3215158940E-01
          0                 4           1            22   20     2       0.2914713902E-04      22   18    2         0.1188214701E-02      0.2565195173E-01
          0                 5           1            28   23     1       0.1933562798E-04      30   22    2         0.1010144238E-02      0.2227115967E-01
          0                 6           1            28   25     1       0.2574872868E-04      28   24    2         0.9011027349E-03      0.1986552029E-01
          0                 7           1            29   27     2       0.1580886725E-04      30   26    2         0.8384022199E-03      0.1774892058E-01
          0                 8           1            30   27     1       0.2217054669E-04      30   26    2         0.7603272567E-03      0.1591875196E-01
          0                 9           1            30   28     2       0.1248984915E-04      29   27    2         0.6767865577E-03      0.1427186444E-01
          0                10           1            30   28     2       0.1855384913E-04      32   28    2         0.6230617129E-03      0.1281031302E-01
          0                11           1            30   30     2       0.9893093260E-05      31   29    2         0.5455399879E-03      0.1149621203E-01

    ------------------------------------------------
       NWT REQUIRED           11 OUTER ITERATIONS 
       AND A TOTAL OF         12 INNER ITERATIONS.
    ------------------------------------------------

 OUTPUT CONTROL FOR STRESS PERIOD    1   TIME STEP  100
    SAVE HEAD FOR ALL LAYERS
 SOLVING FOR ZETA FOR LAYER     1 ZONE     2

     945 UPPER PART EQS.       956 LOWER PART EQS.    BAND WIDTH + 1 =   44
 STRESS PERIOD=  1 TIMESTEP=100 LAYER=  1 ZONE=  2 ACTIVE CELLS= 1901 NUMBER OF EQUATIONS=    1901
 UBUDSV SAVING "      ZETASRF  1" ON UNIT 55 AT TIME STEP100, STRESS PERIOD    1

 HEAD WILL BE SAVED ON UNIT   51 AT END OF TIME STEP  100, STRESS PERIOD    1
 
 SOLVING FOR HEAD 
                                                   Max.-Head-Change                         Max.-Flux-Residual
  Residual-Control   Outer-Iter.   Inner-Iter.     Column Row Layer    Maximum-Head-Change  Column Row Layer    Maximum-Flux-Residual          L2-NORM 
          0                 1           2            31   32     1       0.1245208331E-02      53   14    1        -0.6781096116E+00      0.6275656616E+01
          0                 2           1            45   51     2      -0.6343518786E-04      30   50    2        -0.4355015118E-02      0.7012217977E-01
          0                 3           1            47   47     2      -0.2074235140E-04      41   52    1        -0.2370792877E-02      0.3184946863E-01
          0                 4           1            44   47     1      -0.1944506677E-04      42   50    2        -0.1152551223E-02      0.1825475032E-01
          0                 5           1            31   29     2       0.7903579584E-05      47   49    2        -0.8622884329E-03      0.1122671644E-01

    ------------------------------------------------
       NWT REQUIRED            5 OUTER ITERATIONS 
       AND A TOTAL OF          6 INNER ITERATIONS.
    ------------------------------------------------

 OUTPUT CONTROL FOR STRESS PERIOD    1   TIME STEP  101
    SAVE HEAD FOR ALL LAYERS
 SOLVING FOR ZETA FOR LAYER     1 ZONE     2

     985 UPPER PART EQS.       972 LOWER PART EQS.    BAND WIDTH + 1 =   46
 STRESS PERIOD=  1 TIMESTEP=101 LAYER=  1 ZONE=  2 ACTIVE CELLS= 1957 NUMBER OF EQUATIONS=    1957
 UBUDSV SAVING "      ZETASRF  1" ON UNIT 55 AT TIME STEP101, STRESS PERIOD    1

 HEAD WILL BE SAVED ON UNIT   51 AT END OF TIME STEP  101, STRESS PERIOD    1
 
 SOLVING FOR HEAD 
                                                   Max.-Head-Change                         Max.-Flux-Residual
  Residual-Control   Outer-Iter.   Inner-Iter.     Column Row Layer    Maximum-Head-Change  Column Row Layer    Maximum-Flux-Residual          L2-NORM 
          0                 1           2            31   32     1       0.1234527449E-02      53   20    1        -0.6019471135E+00      0.6487848419E+01
          0                 2           1            45   15     2       0.4726628796E-04      46   14    2         0.3426101225E-02      0.5762991978E-01
          0                 3           1            21   18     1       0.2494015617E-04      19   18    1         0.1540102109E-02      0.3201549852E-01
          0                 4           1            22   20     2       0.2878047962E-04      22   18    2         0.1188036196E-02      0.2549724584E-01
          0                 5           1            28   23     1       0.1906443931E-04      30   22    2         0.9947911201E-03      0.2211114993E-01
          0                 6           1            28   25     1       0.2520687884E-04      28   24    2         0.8878971674E-03      0.1971248322E-01
          0                 7           1            29   27     2       0.1565110132E-04      30   26    2         0.8269567600E-03      0.1760060109E-01
          0                 8           1            30   27     1       0.2171090171E-04      30   26    2         0.7508847725E-03      0.1579391245E-01
          0                 9           1            30   28     2       0.1243448101E-04      29   27    2         0.6704579419E-03      0.1415622570E-01
          0                10           1            30   28     2       0.1818452060E-04      32   28    2         0.6167032966E-03      0.1271785222E-01
          0                11           1            30   30     2       0.9878474447E-05      48   21    1         0.5437687619E-03      0.1141144845E-01

    ------------------------------------------------
       NWT REQUIRED           11 OUTER ITERATIONS 
       AND A TOTAL OF         12 INNER ITERATIONS.
    ------------------------------------------------

 OUTPUT CONTROL FOR STRESS PERIOD    1   TIME STEP  102
    SAVE HEAD FOR ALL LAYERS
 SOLVING FOR ZETA FOR LAYER     1 ZONE     2

     945 UPPER PART EQS.       956 LOWER PART EQS.    BAND WIDTH + 1 =   44
 STRESS PERIOD=  1 TIMESTEP=102 LAYER=  1 ZONE=  2 ACTIVE CELLS= 1901 NUMBER OF EQUATIONS=    1901
 UBUDSV SAVING "      ZETASRF  1" ON UNIT 55 AT TIME STEP102, STRESS PERIOD    1

 HEAD WILL BE SAVED ON UNIT   51 AT END OF TIME STEP  102, STRESS PERIOD    1
 
 SOLVING FOR HEAD 
                                                   Max.-Head-Change                         Max.-Flux-Residual
  Residual-Control   Outer-Iter.   Inner-Iter.     Column Row Layer    Maximum-Head-Change  Column Row Layer    Maximum-Flux-Residual          L2-NORM 
          0                 1           2            31   32     1       0.1234034655E-02      53   14    1        -0.6887904021E+00      0.6273536657E+01
          0                 2           1            45   51     2      -0.6476557819E-04      29   51    2        -0.4381108330E-02      0.7054633962E-01
          0                 3           1            47   47     2      -0.2115020970E-04      41   52    1        -0.2506667539E-02      0.3246771696E-01
          0                 4           1            44   47     1      -0.2041886280E-04      42   50    2        -0.1197108628E-02      0.1873220122E-01
          0                 5           1            46   46     2      -0.8240133635E-05      47   49    2        -0.8818586846E-03      0.1160448901E-01

    ------------------------------------------------
       NWT REQUIRED            5 OUTER ITERATIONS 
       AND A TOTAL OF          6 INNER ITERATIONS.
    ------------------------------------------------

 OUTPUT CONTROL FOR STRESS PERIOD    1   TIME STEP  103
    SAVE HEAD FOR ALL LAYERS
 SOLVING FOR ZETA FOR LAYER     1 ZONE     2

     985 UPPER PART EQS.       972 LOWER PART EQS.    BAND WIDTH + 1 =   46
 STRESS PERIOD=  1 TIMESTEP=103 LAYER=  1 ZONE=  2 ACTIVE CELLS= 1957 NUMBER OF EQUATIONS=    1957
 UBUDSV SAVING "      ZETASRF  1" ON UNIT 55 AT TIME STEP103, STRESS PERIOD    1

 HEAD WILL BE SAVED ON UNIT   51 AT END OF TIME STEP  103, STRESS PERIOD    1
 
 SOLVING FOR HEAD 
                                                   Max.-Head-Change                         Max.-Flux-Residual
  Residual-Control   Outer-Iter.   Inner-Iter.     Column Row Layer    Maximum-Head-Change  Column Row Layer    Maximum-Flux-Residual          L2-NORM 
          0                 1           2            31   32     1       0.1222025008E-02      53   20    1        -0.6246908979E+00      0.6582395366E+01
          0                 2           1            45   15     2       0.4765144053E-04      46   14    2         0.3510193037E-02      0.5732426616E-01
          0                 3           1            19   18     1       0.2461651135E-04      15   17    2         0.1541762611E-02      0.3139808754E-01
          0                 4           1            22   20     2       0.2776627377E-04      22   18    2         0.1170481499E-02      0.2476811139E-01
          0                 5           1            28   23     1       0.1835651603E-04      30   22    2         0.9527795410E-03      0.2138304188E-01
          0                 6           1            28   25     1       0.2374402166E-04      28   24    2         0.8499073673E-03      0.1903409903E-01
          0                 7           1            30   26     2       0.1520746003E-04      30   26    2         0.7929170399E-03      0.1697677014E-01
          0                 8           1            30   27     1       0.2034994369E-04      30   26    2         0.7207155759E-03      0.1524314947E-01
          0                 9           1            30   28     2       0.1221138468E-04      29   27    2         0.6474525438E-03      0.1366302924E-01
          0                10           1            30   28     2       0.1699386179E-04      32   28    2         0.5938525840E-03      0.1229216145E-01
          0                11           1            30   30     2       0.9769113199E-05      31   29    2         0.5254185414E-03      0.1103560801E-01

    ------------------------------------------------
       NWT REQUIRED           11 OUTER ITERATIONS 
       AND A TOTAL OF         12 INNER ITERATIONS.
    ------------------------------------------------

 OUTPUT CONTROL FOR STRESS PERIOD    1   TIME STEP  104
    SAVE HEAD FOR ALL LAYERS
 SOLVING FOR ZETA FOR LAYER     1 ZONE     2

     945 UPPER PART EQS.       956 LOWER PART EQS.    BAND WIDTH + 1 =   44
 STRESS PERIOD=  1 TIMESTEP=104 LAYER=  1 ZONE=  2 ACTIVE CELLS= 1901 NUMBER OF EQUATIONS=    1901
 UBUDSV SAVING "      ZETASRF  1" ON UNIT 55 AT TIME STEP104, STRESS PERIOD    1

 HEAD WILL BE SAVED ON UNIT   51 AT END OF TIME STEP  104, STRESS PERIOD    1
 
 SOLVING FOR HEAD 
                                                   Max.-Head-Change                         Max.-Flux-Residual
  Residual-Control   Outer-Iter.   Inner-Iter.     Column Row Layer    Maximum-Head-Change  Column Row Layer    Maximum-Flux-Residual          L2-NORM 
          0                 1           2            31   32     1       0.1222493098E-02      53   14    1        -0.6996117096E+00      0.6302124690E+01
          0                 2           1            45   51     2      -0.6600613587E-04      29   51    2        -0.4506205151E-02      0.7111463142E-01
          0                 3           1            47   47     2      -0.2167998255E-04      41   52    1        -0.2639474326E-02      0.3330665872E-01
          0                 4           1            44   47     1      -0.2134037615E-04      42   50    2        -0.1247741718E-02      0.1934832023E-01
          0                 5           1            45   43     2      -0.8796492247E-05      47   49    2        -0.9015302219E-03      0.1220043715E-01

    ------------------------------------------------
       NWT REQUIRED            5 OUTER ITERATIONS 
       AND A TOTAL OF          6 INNER ITERATIONS.
    ------------------------------------------------

 OUTPUT CONTROL FOR STRESS PERIOD    1   TIME STEP  105
    SAVE HEAD FOR ALL LAYERS
 SOLVING FOR ZETA FOR LAYER     1 ZONE     2

     985 UPPER PART EQS.       972 LOWER PART EQS.    BAND WIDTH + 1 =   46
 STRESS PERIOD=  1 TIMESTEP=105 LAYER=  1 ZONE=  2 ACTIVE CELLS= 1957 NUMBER OF EQUATIONS=    1957
 UBUDSV SAVING "      ZETASRF  1" ON UNIT 55 AT TIME STEP105, STRESS PERIOD    1

 HEAD WILL BE SAVED ON UNIT   51 AT END OF TIME STEP  105, STRESS PERIOD    1
 
 SOLVING FOR HEAD 
                                                   Max.-Head-Change                         Max.-Flux-Residual
  Residual-Control   Outer-Iter.   Inner-Iter.     Column Row Layer    Maximum-Head-Change  Column Row Layer    Maximum-Flux-Residual          L2-NORM 
          0                 1           2            31   32     1       0.1209302704E-02      53   20    1        -0.6480436703E+00      0.6705285084E+01
          0                 2           1            45   15     2       0.4806040509E-04      46   14    2         0.3597902886E-02      0.5720879456E-01
          0                 3           1            20   17     1       0.2447629911E-04      15   17    2         0.1562714255E-02      0.3081712830E-01
          0                 4           1            21   19     2       0.2686308280E-04      22   18    2         0.1152727565E-02      0.2406134714E-01
          0                 5           1            25   22     1       0.1756343866E-04      27   21    2         0.9124880480E-03      0.2068426451E-01
          0                 6           1            29   24     1       0.2243583765E-04      26   22    2         0.8116820910E-03      0.1836752520E-01
          0                 7           1            30   26     2       0.1455967328E-04      31   25    2         0.7573213001E-03      0.1637646605E-01
          0                 8           1            30   27     1       0.1941913904E-04      30   26    2         0.6898704122E-03      0.1469046587E-01
          0                 9           1            29   27     2       0.1172140424E-04      30   26    2         0.6216077493E-03      0.1317177668E-01
          0                10           1            30   28     2       0.1632945453E-04      32   28    2         0.5697806733E-03      0.1184259724E-01
          0                11           1            30   30     2       0.9365007627E-05      48   21    1         0.5088093460E-03      0.1063679695E-01

    ------------------------------------------------
       NWT REQUIRED           11 OUTER ITERATIONS 
       AND A TOTAL OF         12 INNER ITERATIONS.
    ------------------------------------------------

 OUTPUT CONTROL FOR STRESS PERIOD    1   TIME STEP  106
    SAVE HEAD FOR ALL LAYERS
 SOLVING FOR ZETA FOR LAYER     1 ZONE     2

     945 UPPER PART EQS.       956 LOWER PART EQS.    BAND WIDTH + 1 =   44
 STRESS PERIOD=  1 TIMESTEP=106 LAYER=  1 ZONE=  2 ACTIVE CELLS= 1901 NUMBER OF EQUATIONS=    1901
 UBUDSV SAVING "      ZETASRF  1" ON UNIT 55 AT TIME STEP106, STRESS PERIOD    1

 HEAD WILL BE SAVED ON UNIT   51 AT END OF TIME STEP  106, STRESS PERIOD    1
 
 SOLVING FOR HEAD 
                                                   Max.-Head-Change                         Max.-Flux-Residual
  Residual-Control   Outer-Iter.   Inner-Iter.     Column Row Layer    Maximum-Head-Change  Column Row Layer    Maximum-Flux-Residual          L2-NORM 
          0                 1           2            31   32     1       0.1210832746E-02      53   14    1        -0.7105658214E+00      0.6365076202E+01
          0                 2           1            45   51     2      -0.6712849732E-04      29   51    2        -0.4637848568E-02      0.7183989334E-01
          0                 3           1            47   47     2      -0.2219624109E-04      41   52    1        -0.2766076600E-02      0.3425042169E-01
          0                 4           1            44   47     1      -0.2251181839E-04      42   50    2        -0.1294946070E-02      0.2011788111E-01
          0                 5           1            45   41     2      -0.9363486631E-05      47   49    2        -0.9367183148E-03      0.1292507608E-01

    ------------------------------------------------
       NWT REQUIRED            5 OUTER ITERATIONS 
       AND A TOTAL OF          6 INNER ITERATIONS.
    ------------------------------------------------

 OUTPUT CONTROL FOR STRESS PERIOD    1   TIME STEP  107
    SAVE HEAD FOR ALL LAYERS
 SOLVING FOR ZETA FOR LAYER     1 ZONE     2

     985 UPPER PART EQS.       972 LOWER PART EQS.    BAND WIDTH + 1 =   46
 STRESS PERIOD=  1 TIMESTEP=107 LAYER=  1 ZONE=  2 ACTIVE CELLS= 1957 NUMBER OF EQUATIONS=    1957
 UBUDSV SAVING "      ZETASRF  1" ON UNIT 55 AT TIME STEP107, STRESS PERIOD    1

 HEAD WILL BE SAVED ON UNIT   51 AT END OF TIME STEP  107, STRESS PERIOD    1
 
 SOLVING FOR HEAD 
                                                   Max.-Head-Change                         Max.-Flux-Residual
  Residual-Control   Outer-Iter.   Inner-Iter.     Column Row Layer    Maximum-Head-Change  Column Row Layer    Maximum-Flux-Residual          L2-NORM 
          0                 1           2            31   32     1       0.1196495018E-02      53   20    1        -0.6719730598E+00      0.6857848148E+01
          0                 2           1            45   15     2       0.4852757475E-04      15   13    2         0.3692483708E-02      0.5733345749E-01
          0                 3           1            20   17     1       0.2436499535E-04      15   17    2         0.1586141478E-02      0.3037329746E-01
          0                 4           1            21   19     2       0.2598881256E-04      19   17    2         0.1141665603E-02      0.2343887825E-01
          0                 5           1            26   21     1       0.1704685031E-04      19   21    2         0.8817043160E-03      0.2003670089E-01
          0                 6           1            29   24     1       0.2101630372E-04      26   22    2         0.7816757413E-03      0.1774875079E-01
          0                 7           1            30   26     2       0.1406167729E-04      29   23    2         0.7245214343E-03      0.1581622246E-01
          0                 8           1            30   27     1       0.1820416905E-04      30   26    2         0.6597995809E-03      0.1418046708E-01
          0                 9           1            29   27     2       0.1143439519E-04      30   26    2         0.5985882159E-03      0.1272539113E-01
          0                10           1            30   28     2       0.1534117745E-04      29   27    2         0.5478157161E-03      0.1144076247E-01
          0                11           1            31   29     2       0.9176256156E-05      31   29    2         0.4876926506E-03      0.1029048285E-01

    ------------------------------------------------
       NWT REQUIRED           11 OUTER ITERATIONS 
       AND A TOTAL OF         12 INNER ITERATIONS.
    ------------------------------------------------

 OUTPUT CONTROL FOR STRESS PERIOD    1   TIME STEP  108
    SAVE HEAD FOR ALL LAYERS
 SOLVING FOR ZETA FOR LAYER     1 ZONE     2

     945 UPPER PART EQS.       956 LOWER PART EQS.    BAND WIDTH + 1 =   44
 STRESS PERIOD=  1 TIMESTEP=108 LAYER=  1 ZONE=  2 ACTIVE CELLS= 1901 NUMBER OF EQUATIONS=    1901
 UBUDSV SAVING "      ZETASRF  1" ON UNIT 55 AT TIME STEP108, STRESS PERIOD    1

 HEAD WILL BE SAVED ON UNIT   51 AT END OF TIME STEP  108, STRESS PERIOD    1
 
 SOLVING FOR HEAD 
                                                   Max.-Head-Change                         Max.-Flux-Residual
  Residual-Control   Outer-Iter.   Inner-Iter.     Column Row Layer    Maximum-Head-Change  Column Row Layer    Maximum-Flux-Residual          L2-NORM 
          0                 1           2            31   32     1       0.1199188244E-02      53   14    1        -0.7216501405E+00      0.6464576567E+01
          0                 2           1            45   51     2      -0.6812557533E-04      29   51    2        -0.4775514744E-02      0.7272132261E-01
          0                 3           1            47   49     2      -0.2283529407E-04      41   52    1        -0.2884599551E-02      0.3519580497E-01
          0                 4           1            44   47     1      -0.2350351216E-04      42   50    2        -0.1336230087E-02      0.2102930410E-01
          0                 5           1            45   41     2      -0.1010389384E-04      47   49    2        -0.9490728073E-03      0.1384388972E-01
          0                 6           1            42   45     1      -0.1159624907E-04      45   39    2        -0.7088853811E-03      0.9670260873E-02
          0                 7           1            40   44     2      -0.5722951451E-05      45   39    2        -0.5636267394E-03      0.7338587514E-02

    ------------------------------------------------
       NWT REQUIRED            7 OUTER ITERATIONS 
       AND A TOTAL OF          8 INNER ITERATIONS.
    ------------------------------------------------

 OUTPUT CONTROL FOR STRESS PERIOD    1   TIME STEP  109
    SAVE HEAD FOR ALL LAYERS
 SOLVING FOR ZETA FOR LAYER     1 ZONE     2

     985 UPPER PART EQS.       972 LOWER PART EQS.    BAND WIDTH + 1 =   46
 STRESS PERIOD=  1 TIMESTEP=109 LAYER=  1 ZONE=  2 ACTIVE CELLS= 1957 NUMBER OF EQUATIONS=    1957
 UBUDSV SAVING "      ZETASRF  1" ON UNIT 55 AT TIME STEP109, STRESS PERIOD    1

 HEAD WILL BE SAVED ON UNIT   51 AT END OF TIME STEP  109, STRESS PERIOD    1
 
 SOLVING FOR HEAD 
                                                   Max.-Head-Change                         Max.-Flux-Residual
  Residual-Control   Outer-Iter.   Inner-Iter.     Column Row Layer    Maximum-Head-Change  Column Row Layer    Maximum-Flux-Residual          L2-NORM 
          0                 1           2            31   32     1       0.1179750776E-02      53   20    1        -0.6964409520E+00      0.7041733209E+01
          0                 2           1            45   15     2       0.5090687679E-04      15   13    2         0.3902468798E-02      0.5865899241E-01
          0                 3           1            20   17     1       0.2518056413E-04      15   17    2         0.1658498403E-02      0.3109134057E-01
          0                 4           1            21   19     2       0.2571233591E-04      19   17    2         0.1175913768E-02      0.2379874100E-01
          0                 5           1            24   21     1       0.1652491945E-04      19   21    2         0.8896389271E-03      0.2015426800E-01
          0                 6           1            26   23     1       0.2023290564E-04      23   21    2         0.7667775867E-03      0.1776318503E-01
          0                 7           1            30   25     1       0.1352645379E-04      29   23    2         0.7049131884E-03      0.1578682301E-01
          0                 8           1            30   27     1       0.1795472364E-04      30   26    2         0.6427113610E-03      0.1415034034E-01
          0                 9           1            29   27     2       0.1109922562E-04      30   26    2         0.5878112280E-03      0.1268305312E-01
          0                10           1            30   28     2       0.1542610005E-04      29   27    2         0.5403762354E-03      0.1140728102E-01
          0                11           1            31   29     2       0.8949185828E-05      31   29    2         0.4828435716E-03      0.1024749479E-01

    ------------------------------------------------
       NWT REQUIRED           11 OUTER ITERATIONS 
       AND A TOTAL OF         12 INNER ITERATIONS.
    ------------------------------------------------

 OUTPUT CONTROL FOR STRESS PERIOD    1   TIME STEP  110
    SAVE HEAD FOR ALL LAYERS
 SOLVING FOR ZETA FOR LAYER     1 ZONE     2

     945 UPPER PART EQS.       956 LOWER PART EQS.    BAND WIDTH + 1 =   44
 STRESS PERIOD=  1 TIMESTEP=110 LAYER=  1 ZONE=  2 ACTIVE CELLS= 1901 NUMBER OF EQUATIONS=    1901
 UBUDSV SAVING "      ZETASRF  1" ON UNIT 55 AT TIME STEP110, STRESS PERIOD    1

 HEAD WILL BE SAVED ON UNIT   51 AT END OF TIME STEP  110, STRESS PERIOD    1
 
 SOLVING FOR HEAD 
                                                   Max.-Head-Change                         Max.-Flux-Residual
  Residual-Control   Outer-Iter.   Inner-Iter.     Column Row Layer    Maximum-Head-Change  Column Row Layer    Maximum-Flux-Residual          L2-NORM 
          0                 1           2            31   32     1       0.1187895862E-02       9   48    1        -0.7328484382E+00      0.6601490853E+01
          0                 2           1            45   51     2      -0.6893469440E-04      29   51    2        -0.4915845349E-02      0.7371935577E-01
          0                 3           1            47   49     2      -0.2351608977E-04      41   52    1        -0.2991144066E-02      0.3612953508E-01
          0                 4           1            44   47     1      -0.2430071497E-04      42   50    2        -0.1384794601E-02      0.2203613294E-01
          0                 5           1            45   41     2      -0.1077337576E-04      45   39    2        -0.1015444252E-02      0.1488519274E-01
          0                 6           1            42   45     1      -0.1241179044E-04      42   42    2        -0.7941817767E-03      0.1063998990E-01
          0                 7           1            40   43     2      -0.6346537017E-05      45   39    2        -0.6146450642E-03      0.8313366280E-02

    ------------------------------------------------
       NWT REQUIRED            7 OUTER ITERATIONS 
       AND A TOTAL OF          8 INNER ITERATIONS.
    ------------------------------------------------

 OUTPUT CONTROL FOR STRESS PERIOD    1   TIME STEP  111
    SAVE HEAD FOR ALL LAYERS
 SOLVING FOR ZETA FOR LAYER     1 ZONE     2

     985 UPPER PART EQS.       972 LOWER PART EQS.    BAND WIDTH + 1 =   46
 STRESS PERIOD=  1 TIMESTEP=111 LAYER=  1 ZONE=  2 ACTIVE CELLS= 1957 NUMBER OF EQUATIONS=    1957
 UBUDSV SAVING "      ZETASRF  1" ON UNIT 55 AT TIME STEP111, STRESS PERIOD    1

 HEAD WILL BE SAVED ON UNIT   51 AT END OF TIME STEP  111, STRESS PERIOD    1
 
 SOLVING FOR HEAD 
                                                   Max.-Head-Change                         Max.-Flux-Residual
  Residual-Control   Outer-Iter.   Inner-Iter.     Column Row Layer    Maximum-Head-Change  Column Row Layer    Maximum-Flux-Residual          L2-NORM 
          0                 1           2            31   32     1       0.1167298211E-02      53   20    1        -0.7214316633E+00      0.7254004566E+01
          0                 2           1            45   15     2       0.5165939632E-04      15   13    2         0.4056042963E-02      0.5946905773E-01
          0                 3           1            18   17     1       0.2539336783E-04      13   15    2         0.1691779891E-02      0.3120684667E-01
          0                 4           1            21   19     2       0.2516196691E-04      19   17    2         0.1186943523E-02      0.2364357697E-01
          0                 5           1            23   20     1       0.1649009012E-04      19   21    2         0.8875466571E-03      0.1987045327E-01
          0                 6           1            26   23     1       0.1916125665E-04      23   21    2         0.7575017686E-03      0.1746505917E-01
          0                 7           1            30   25     1       0.1344430739E-04      29   23    2         0.6881394401E-03      0.1549267433E-01
          0                 8           1            30   27     1       0.1674505294E-04      31   25    2         0.6243702796E-03      0.1389929835E-01
          0                 9           1            29   27     2       0.1123611305E-04      30   26    2         0.5765766118E-03      0.1245985656E-01
          0                10           1            30   28     2       0.1429452196E-04      29   27    2         0.5287317221E-03      0.1123055811E-01
          0                11           1            31   29     2       0.9202401201E-05      31   29    2         0.4769220444E-03      0.1009831585E-01

    ------------------------------------------------
       NWT REQUIRED           11 OUTER ITERATIONS 
       AND A TOTAL OF         12 INNER ITERATIONS.
    ------------------------------------------------

 OUTPUT CONTROL FOR STRESS PERIOD    1   TIME STEP  112
    SAVE HEAD FOR ALL LAYERS
 SOLVING FOR ZETA FOR LAYER     1 ZONE     2

     945 UPPER PART EQS.       956 LOWER PART EQS.    BAND WIDTH + 1 =   44
 STRESS PERIOD=  1 TIMESTEP=112 LAYER=  1 ZONE=  2 ACTIVE CELLS= 1901 NUMBER OF EQUATIONS=    1901
 UBUDSV SAVING "      ZETASRF  1" ON UNIT 55 AT TIME STEP112, STRESS PERIOD    1

 HEAD WILL BE SAVED ON UNIT   51 AT END OF TIME STEP  112, STRESS PERIOD    1
 
 SOLVING FOR HEAD 
                                                   Max.-Head-Change                         Max.-Flux-Residual
  Residual-Control   Outer-Iter.   Inner-Iter.     Column Row Layer    Maximum-Head-Change  Column Row Layer    Maximum-Flux-Residual          L2-NORM 
          0                 1           2            31   32     1       0.1176417986E-02       9   48    1        -0.7441502066E+00      0.6775470264E+01
          0                 2           1            49   47     2      -0.7024514915E-04      29   51    2        -0.5064290539E-02      0.7488243711E-01
          0                 3           1            47   46     1      -0.2445299406E-04      41   52    1        -0.3089952670E-02      0.3734536266E-01
          0                 4           1            44   47     1      -0.2507714128E-04      42   50    2        -0.1436062435E-02      0.2305634502E-01
          0                 5           1            45   41     2      -0.1154041767E-04      50   39    1        -0.1028385181E-02      0.1587569967E-01
          0                 6           1            42   42     2      -0.1327593695E-04      43   41    2        -0.8444934781E-03      0.1164493180E-01
          0                 7           1            40   43     2      -0.7178213480E-05      43   41    2        -0.5729378554E-03      0.9301231307E-02

    ------------------------------------------------
       NWT REQUIRED            7 OUTER ITERATIONS 
       AND A TOTAL OF          8 INNER ITERATIONS.
    ------------------------------------------------

 OUTPUT CONTROL FOR STRESS PERIOD    1   TIME STEP  113
    SAVE HEAD FOR ALL LAYERS
 SOLVING FOR ZETA FOR LAYER     1 ZONE     2

     985 UPPER PART EQS.       972 LOWER PART EQS.    BAND WIDTH + 1 =   46
 STRESS PERIOD=  1 TIMESTEP=113 LAYER=  1 ZONE=  2 ACTIVE CELLS= 1957 NUMBER OF EQUATIONS=    1957
 UBUDSV SAVING "      ZETASRF  1" ON UNIT 55 AT TIME STEP113, STRESS PERIOD    1

 HEAD WILL BE SAVED ON UNIT   51 AT END OF TIME STEP  113, STRESS PERIOD    1
 
 SOLVING FOR HEAD 
                                                   Max.-Head-Change                         Max.-Flux-Residual
  Residual-Control   Outer-Iter.   Inner-Iter.     Column Row Layer    Maximum-Head-Change  Column Row Layer    Maximum-Flux-Residual          L2-NORM 
          0                 1           2            31   32     1       0.1154740026E-02      53   20    1        -0.7468821146E+00      0.7494792512E+01
          0                 2           1            45   15     2       0.5243574943E-04      15   13    2         0.4211292714E-02      0.6047304653E-01
          0                 3           1            18   17     1       0.2574448459E-04      13   15    2         0.1745471191E-02      0.3140383332E-01
          0                 4           1            20   18     2       0.2489848150E-04      19   17    2         0.1198592362E-02      0.2354643465E-01
          0                 5           1            23   20     1       0.1630531434E-04      19   21    2         0.8855191734E-03      0.1963812853E-01
          0                 6           1            26   22     2       0.1858384530E-04      23   21    2         0.7487056557E-03      0.1718601699E-01
          0                 7           1            28   24     2       0.1302703652E-04      29   23    2         0.6701179394E-03      0.1520879771E-01
          0                 8           1            29   25     2       0.1633417204E-04      27   25    2         0.6074989869E-03      0.1363203947E-01
          0                 9           1            29   27     2       0.1088647654E-04      30   26    2         0.5620379378E-03      0.1221127617E-01
          0                10           1            30   28     2       0.1408785422E-04      29   27    2         0.5162893676E-03      0.1100366322E-01
          0                11           1            31   29     2       0.8902479224E-05      31   29    2         0.4656555607E-03      0.9889295074E-02

    ------------------------------------------------
       NWT REQUIRED           11 OUTER ITERATIONS 
       AND A TOTAL OF         12 INNER ITERATIONS.
    ------------------------------------------------

 OUTPUT CONTROL FOR STRESS PERIOD    1   TIME STEP  114
    SAVE HEAD FOR ALL LAYERS
 SOLVING FOR ZETA FOR LAYER     1 ZONE     2

     945 UPPER PART EQS.       956 LOWER PART EQS.    BAND WIDTH + 1 =   44
 STRESS PERIOD=  1 TIMESTEP=114 LAYER=  1 ZONE=  2 ACTIVE CELLS= 1901 NUMBER OF EQUATIONS=    1901
 UBUDSV SAVING "      ZETASRF  1" ON UNIT 55 AT TIME STEP114, STRESS PERIOD    1

 HEAD WILL BE SAVED ON UNIT   51 AT END OF TIME STEP  114, STRESS PERIOD    1
 
 SOLVING FOR HEAD 
                                                   Max.-Head-Change                         Max.-Flux-Residual
  Residual-Control   Outer-Iter.   Inner-Iter.     Column Row Layer    Maximum-Head-Change  Column Row Layer    Maximum-Flux-Residual          L2-NORM 
          0                 1           2            31   32     1       0.1164850047E-02       9   48    1        -0.7555409331E+00      0.6985281425E+01
          0                 2           1            49   47     2      -0.7166213891E-04      29   51    2        -0.5219362235E-02      0.7620397620E-01
          0                 3           1            47   46     1      -0.2550076430E-04      41   52    1        -0.3180026817E-02      0.3860154506E-01
          0                 4           1            44   47     1      -0.2595488092E-04      42   50    2        -0.1486032098E-02      0.2431258659E-01
          0                 5           1            45   41     2      -0.1229514775E-04      50   39    1        -0.1077507535E-02      0.1716357617E-01
          0                 6           1            42   42     2      -0.1430964589E-04      43   41    2        -0.9041377904E-03      0.1283986249E-01
          0                 7           1            40   44     2      -0.7760667504E-05      39   43    2        -0.6828332711E-03      0.1049897514E-01

    ------------------------------------------------
       NWT REQUIRED            7 OUTER ITERATIONS 
       AND A TOTAL OF          8 INNER ITERATIONS.
    ------------------------------------------------

 OUTPUT CONTROL FOR STRESS PERIOD    1   TIME STEP  115
    SAVE HEAD FOR ALL LAYERS
 SOLVING FOR ZETA FOR LAYER     1 ZONE     2

     985 UPPER PART EQS.       972 LOWER PART EQS.    BAND WIDTH + 1 =   46
 STRESS PERIOD=  1 TIMESTEP=115 LAYER=  1 ZONE=  2 ACTIVE CELLS= 1957 NUMBER OF EQUATIONS=    1957
 UBUDSV SAVING "      ZETASRF  1" ON UNIT 55 AT TIME STEP115, STRESS PERIOD    1

 HEAD WILL BE SAVED ON UNIT   51 AT END OF TIME STEP  115, STRESS PERIOD    1
 
 SOLVING FOR HEAD 
                                                   Max.-Head-Change                         Max.-Flux-Residual
  Residual-Control   Outer-Iter.   Inner-Iter.     Column Row Layer    Maximum-Head-Change  Column Row Layer    Maximum-Flux-Residual          L2-NORM 
          0                 1           2            31   32     1       0.1142099607E-02      53   20    1        -0.7727706679E+00      0.7762650834E+01
          0                 2           1            45   15     2       0.5324940179E-04      15   13    2         0.4367840908E-02      0.6166904139E-01
          0                 3           1            17   16     1       0.2625345419E-04      13   15    2         0.1799967530E-02      0.3170646906E-01
          0                 4           1            20   18     2       0.2469887659E-04      19   17    2         0.1210720833E-02      0.2351257649E-01
          0                 5           1            23   20     1       0.1608090115E-04      19   21    2         0.8836344953E-03      0.1945252420E-01
          0                 6           1            25   21     2       0.1817997644E-04      23   21    2         0.7401365020E-03      0.1693250079E-01
          0                 7           1            28   23     1       0.1262232324E-04      29   23    2         0.6520162697E-03      0.1494573678E-01
          0                 8           1            29   25     2       0.1602479094E-04      27   25    2         0.5918254667E-03      0.1337576825E-01
          0                 9           1            29   27     2       0.1046529560E-04      30   26    2         0.5473706334E-03      0.1197662027E-01
          0                10           1            30   28     2       0.1405263858E-04      29   27    2         0.5041395843E-03      0.1078205106E-01
          0                11           1            31   29     2       0.8516993723E-05      31   29    2         0.4539257742E-03      0.9683931295E-02

    ------------------------------------------------
       NWT REQUIRED           11 OUTER ITERATIONS 
       AND A TOTAL OF         12 INNER ITERATIONS.
    ------------------------------------------------

 OUTPUT CONTROL FOR STRESS PERIOD    1   TIME STEP  116
    SAVE HEAD FOR ALL LAYERS
 SOLVING FOR ZETA FOR LAYER     1 ZONE     2

     945 UPPER PART EQS.       956 LOWER PART EQS.    BAND WIDTH + 1 =   44
 STRESS PERIOD=  1 TIMESTEP=116 LAYER=  1 ZONE=  2 ACTIVE CELLS= 1901 NUMBER OF EQUATIONS=    1901
 UBUDSV SAVING "      ZETASRF  1" ON UNIT 55 AT TIME STEP116, STRESS PERIOD    1

 HEAD WILL BE SAVED ON UNIT   51 AT END OF TIME STEP  116, STRESS PERIOD    1
 
 SOLVING FOR HEAD 
                                                   Max.-Head-Change                         Max.-Flux-Residual
  Residual-Control   Outer-Iter.   Inner-Iter.     Column Row Layer    Maximum-Head-Change  Column Row Layer    Maximum-Flux-Residual          L2-NORM 
          0                 1           2            31   32     1       0.1153265435E-02      21    9    1        -0.7743502925E+00      0.7229004016E+01
          0                 2           1            49   47     2      -0.7300785135E-04      29   51    2        -0.5380473008E-02      0.7767145145E-01
          0                 3           1            47   46     1      -0.2655445860E-04      41   52    1        -0.3261654497E-02      0.4000810975E-01
          0                 4           1            44   47     1      -0.2719127224E-04      42   50    2        -0.1529041408E-02      0.2545210913E-01
          0                 5           1            45   41     2      -0.1286732479E-04      50   39    1        -0.1126662901E-02      0.1818972126E-01
          0                 6           1            42   42     2      -0.1556465452E-04      43   41    2        -0.9409809907E-03      0.1385742214E-01
          0                 7           1            39   42     2      -0.8339726973E-05      43   37    2        -0.6683673721E-03      0.1147760923E-01

    ------------------------------------------------
       NWT REQUIRED            7 OUTER ITERATIONS 
       AND A TOTAL OF          8 INNER ITERATIONS.
    ------------------------------------------------

 OUTPUT CONTROL FOR STRESS PERIOD    1   TIME STEP  117
    SAVE HEAD FOR ALL LAYERS
 SOLVING FOR ZETA FOR LAYER     1 ZONE     2

     985 UPPER PART EQS.       972 LOWER PART EQS.    BAND WIDTH + 1 =   46
 STRESS PERIOD=  1 TIMESTEP=117 LAYER=  1 ZONE=  2 ACTIVE CELLS= 1957 NUMBER OF EQUATIONS=    1957
 UBUDSV SAVING "      ZETASRF  1" ON UNIT 55 AT TIME STEP117, STRESS PERIOD    1

 HEAD WILL BE SAVED ON UNIT   51 AT END OF TIME STEP  117, STRESS PERIOD    1
 
 SOLVING FOR HEAD 
                                                   Max.-Head-Change                         Max.-Flux-Residual
  Residual-Control   Outer-Iter.   Inner-Iter.     Column Row Layer    Maximum-Head-Change  Column Row Layer    Maximum-Flux-Residual          L2-NORM 
          0                 1           2            31   32     1       0.1129398549E-02      53   20    1        -0.7990555905E+00      0.8055844866E+01
          0                 2           1            45   15     2       0.5412336911E-04      15   13    2         0.4525956036E-02      0.6306562834E-01
          0                 3           1            17   16     1       0.2682675741E-04      13   15    2         0.1855496394E-02      0.3211839062E-01
          0                 4           1            19   17     2       0.2457210496E-04      19   17    2         0.1223718374E-02      0.2356127705E-01
          0                 5           1            21   20     1       0.1597494280E-04      17   19    2         0.8875013441E-03      0.1933704192E-01
          0                 6           1            23   21     2       0.1756870741E-04      21   19    2         0.7367138957E-03      0.1675221357E-01
          0                 7           1            28   23     1       0.1244263934E-04      34   33    1         0.7689237949E-03      0.1477848620E-01
          0                 8           1            28   25     1       0.1505339931E-04      34   33    1         0.7223541043E-03      0.1321123000E-01
          0                 9           1            30   28     1       0.1062764858E-04      34   33    1         0.7454564828E-03      0.1186372378E-01
          0                10           1            30   27     1       0.1286500384E-04      34   33    1         0.6599048546E-03      0.1067574034E-01
          0                11           1            30   28     1       0.9016102949E-05      34   33    1         0.6526015053E-03      0.9631562074E-02

    ------------------------------------------------
       NWT REQUIRED           11 OUTER ITERATIONS 
       AND A TOTAL OF         12 INNER ITERATIONS.
    ------------------------------------------------

 OUTPUT CONTROL FOR STRESS PERIOD    1   TIME STEP  118
    SAVE HEAD FOR ALL LAYERS
 SOLVING FOR ZETA FOR LAYER     1 ZONE     2

     945 UPPER PART EQS.       956 LOWER PART EQS.    BAND WIDTH + 1 =   44
 STRESS PERIOD=  1 TIMESTEP=118 LAYER=  1 ZONE=  2 ACTIVE CELLS= 1901 NUMBER OF EQUATIONS=    1901
 UBUDSV SAVING "      ZETASRF  1" ON UNIT 55 AT TIME STEP118, STRESS PERIOD    1

 HEAD WILL BE SAVED ON UNIT   51 AT END OF TIME STEP  118, STRESS PERIOD    1
 
 SOLVING FOR HEAD 
                                                   Max.-Head-Change                         Max.-Flux-Residual
  Residual-Control   Outer-Iter.   Inner-Iter.     Column Row Layer    Maximum-Head-Change  Column Row Layer    Maximum-Flux-Residual          L2-NORM 
          0                 1           2            23    9     1      -0.1146914757E-02      21    9    1        -0.8021909383E+00      0.7504245569E+01
          0                 2           1            49   47     2      -0.7428923943E-04      29   51    2        -0.5546750432E-02      0.7926359523E-01
          0                 3           1            47   46     1      -0.2763815915E-04      41   52    1        -0.3335157011E-02      0.4136513716E-01
          0                 4           1            43   46     1      -0.2817540855E-04      42   50    2        -0.1573344055E-02      0.2665283108E-01
          0                 5           1            45   41     2      -0.1355033090E-04      50   39    1        -0.1175002884E-02      0.1921259569E-01
          0                 6           1            42   42     2      -0.1675769836E-04      43   41    2        -0.9966502382E-03      0.1488806173E-01
          0                 7           1            39   42     2      -0.8995284209E-05      38   42    2        -0.7437971456E-03      0.1239483244E-01

    ------------------------------------------------
       NWT REQUIRED            7 OUTER ITERATIONS 
       AND A TOTAL OF          8 INNER ITERATIONS.
    ------------------------------------------------

 OUTPUT CONTROL FOR STRESS PERIOD    1   TIME STEP  119
    SAVE HEAD FOR ALL LAYERS
 SOLVING FOR ZETA FOR LAYER     1 ZONE     2

     985 UPPER PART EQS.       972 LOWER PART EQS.    BAND WIDTH + 1 =   46
 STRESS PERIOD=  1 TIMESTEP=119 LAYER=  1 ZONE=  2 ACTIVE CELLS= 1957 NUMBER OF EQUATIONS=    1957
 UBUDSV SAVING "      ZETASRF  1" ON UNIT 55 AT TIME STEP119, STRESS PERIOD    1

 HEAD WILL BE SAVED ON UNIT   51 AT END OF TIME STEP  119, STRESS PERIOD    1
 
 SOLVING FOR HEAD 
                                                   Max.-Head-Change                         Max.-Flux-Residual
  Residual-Control   Outer-Iter.   Inner-Iter.     Column Row Layer    Maximum-Head-Change  Column Row Layer    Maximum-Flux-Residual          L2-NORM 
          0                 1           2            31   32     1       0.1116766127E-02      53   20    1        -0.8256983520E+00      0.8372456474E+01
          0                 2           1            46   14     2       0.5519132168E-04      15   13    2         0.4684919453E-02      0.6464015064E-01
          0                 3           1            17   16     1       0.2741485196E-04      13   15    2         0.1911639526E-02      0.3262151279E-01
          0                 4           1            19   17     2       0.2454599999E-04      19   17    2         0.1237811993E-02      0.2370293817E-01
          0                 5           1            21   20     1       0.1593036192E-04      17   19    2         0.8965246968E-03      0.1933462016E-01
          0                 6           1            23   21     2       0.1712759709E-04      29   26    1         0.7471433925E-03      0.1669320150E-01
          0                 7           1            28   23     1       0.1222103254E-04      29   26    1         0.8144248100E-03      0.1474440435E-01
          0                 8           1            29   25     1       0.1442905403E-04      29   26    1         0.7410638370E-03      0.1316328913E-01
          0                 9           1            30   27     1       0.1048614987E-04      29   26    1         0.7414710830E-03      0.1186686293E-01
          0                10           1            30   27     1       0.1234272242E-04      29   26    1         0.6401857329E-03      0.1065947139E-01
          0                11           1            30   29     1       0.8936468824E-05      29   26    1         0.6218984216E-03      0.9658121114E-02

    ------------------------------------------------
       NWT REQUIRED           11 OUTER ITERATIONS 
       AND A TOTAL OF         12 INNER ITERATIONS.
    ------------------------------------------------

 OUTPUT CONTROL FOR STRESS PERIOD    1   TIME STEP  120
    SAVE HEAD FOR ALL LAYERS
 SOLVING FOR ZETA FOR LAYER     1 ZONE     2

     945 UPPER PART EQS.       956 LOWER PART EQS.    BAND WIDTH + 1 =   44
 STRESS PERIOD=  1 TIMESTEP=120 LAYER=  1 ZONE=  2 ACTIVE CELLS= 1901 NUMBER OF EQUATIONS=    1901
 UBUDSV SAVING "      ZETASRF  1" ON UNIT 55 AT TIME STEP120, STRESS PERIOD    1

 HEAD WILL BE SAVED ON UNIT   51 AT END OF TIME STEP  120, STRESS PERIOD    1
 
 SOLVING FOR HEAD 
                                                   Max.-Head-Change                         Max.-Flux-Residual
  Residual-Control   Outer-Iter.   Inner-Iter.     Column Row Layer    Maximum-Head-Change  Column Row Layer    Maximum-Flux-Residual          L2-NORM 
          0                 1           2            38    9     1      -0.1198494366E-02      53   26    1        -0.8330506275E+00      0.7808340716E+01
          0                 2           1            49   47     2      -0.7554115709E-04      29   51    2        -0.5718449427E-02      0.8099107468E-01
          0                 3           1            47   46     1      -0.2872717357E-04      41   52    1        -0.3402326566E-02      0.4287038247E-01
          0                 4           1            43   46     1      -0.2915426517E-04      42   50    2        -0.1620446447E-02      0.2801506475E-01
          0                 5           1            45   41     2      -0.1427482138E-04      50   39    1        -0.1221619262E-02      0.2049604462E-01
          0                 6           1            42   42     2      -0.1783693168E-04      44   40    2        -0.9762170639E-03      0.1609941400E-01
          0                 7           1            39   42     2      -0.9812396593E-05      41   35    2        -0.7505657474E-03      0.1356823018E-01

    ------------------------------------------------
       NWT REQUIRED            7 OUTER ITERATIONS 
       AND A TOTAL OF          8 INNER ITERATIONS.
    ------------------------------------------------

 OUTPUT CONTROL FOR STRESS PERIOD    1   TIME STEP  121
    SAVE HEAD FOR ALL LAYERS
 SOLVING FOR ZETA FOR LAYER     1 ZONE     2

     985 UPPER PART EQS.       972 LOWER PART EQS.    BAND WIDTH + 1 =   46
 STRESS PERIOD=  1 TIMESTEP=121 LAYER=  1 ZONE=  2 ACTIVE CELLS= 1957 NUMBER OF EQUATIONS=    1957
 UBUDSV SAVING "      ZETASRF  1" ON UNIT 55 AT TIME STEP121, STRESS PERIOD    1

 HEAD WILL BE SAVED ON UNIT   51 AT END OF TIME STEP  121, STRESS PERIOD    1
 
 SOLVING FOR HEAD 
                                                   Max.-Head-Change                         Max.-Flux-Residual
  Residual-Control   Outer-Iter.   Inner-Iter.     Column Row Layer    Maximum-Head-Change  Column Row Layer    Maximum-Flux-Residual          L2-NORM 
          0                 1           2            33    9     1      -0.1165603121E-02      53   20    1        -0.8526725921E+00      0.8710508672E+01
          0                 2           1            46   14     2       0.5646807729E-04      15   13    2         0.4844098449E-02      0.6636519840E-01
          0                 3           1            17   16     1       0.2795635925E-04      13   15    2         0.1967723959E-02      0.3320475062E-01
          0                 4           1            19   17     2       0.2463305996E-04      19   17    2         0.1252351312E-02      0.2388087989E-01
          0                 5           1            21   20     1       0.1584823039E-04      17   19    2         0.9054692565E-03      0.1933014405E-01
          0                 6           1            23   21     2       0.1678170959E-04      27   26    1         0.7974642742E-03      0.1658471586E-01
          0                 7           1            27   22     1       0.1200070160E-04      30   25    1         0.7944579569E-03      0.1462031864E-01
          0                 8           1            29   25     1       0.1389615524E-04      27   26    1         0.7472952743E-03      0.1302525032E-01
          0                 9           1            29   26     1       0.1039041586E-04      30   25    1         0.7173245335E-03      0.1175300917E-01
          0                10           1            30   27     1       0.1182113119E-04      27   26    1         0.6336402523E-03      0.1055231781E-01
          0                11           1            29   28     1       0.8946319092E-05      30   25    1         0.5988122673E-03      0.9572764055E-02

    ------------------------------------------------
       NWT REQUIRED           11 OUTER ITERATIONS 
       AND A TOTAL OF         12 INNER ITERATIONS.
    ------------------------------------------------

 OUTPUT CONTROL FOR STRESS PERIOD    1   TIME STEP  122
    SAVE HEAD FOR ALL LAYERS
 SOLVING FOR ZETA FOR LAYER     1 ZONE     2

     945 UPPER PART EQS.       956 LOWER PART EQS.    BAND WIDTH + 1 =   44
 STRESS PERIOD=  1 TIMESTEP=122 LAYER=  1 ZONE=  2 ACTIVE CELLS= 1901 NUMBER OF EQUATIONS=    1901
 UBUDSV SAVING "      ZETASRF  1" ON UNIT 55 AT TIME STEP122, STRESS PERIOD    1

 HEAD WILL BE SAVED ON UNIT   51 AT END OF TIME STEP  122, STRESS PERIOD    1
 
 SOLVING FOR HEAD 
                                                   Max.-Head-Change                         Max.-Flux-Residual
  Residual-Control   Outer-Iter.   Inner-Iter.     Column Row Layer    Maximum-Head-Change  Column Row Layer    Maximum-Flux-Residual          L2-NORM 
          0                 1           2            38    9     1      -0.1251533989E-02      53   26    1        -0.8655076712E+00      0.8138579998E+01
          0                 2           1            49   47     2      -0.7677445799E-04      29   51    2        -0.5895365286E-02      0.8284093963E-01
          0                 3           1            47   46     1      -0.2984757927E-04      48   49    1        -0.3464266353E-02      0.4454951006E-01
          0                 4           1            43   46     1      -0.3018634707E-04      43   50    1        -0.1712855741E-02      0.2947795376E-01
          0                 5           1            45   41     2      -0.1498129897E-04      50   39    1        -0.1270979000E-02      0.2199751261E-01
          0                 6           1            42   42     2      -0.1912356702E-04      44   24    2        -0.9409044850E-03      0.1741724777E-01
          0                 7           1            38   42     2      -0.1035513259E-04      19   37    2        -0.8419657858E-03      0.1487926314E-01
          0                 8           1            39   39     2      -0.1358446164E-04      28   40    2        -0.6756872909E-03      0.1278234240E-01
          0                 9           1            35   37     2      -0.8953794407E-05      19   37    2        -0.6436832176E-03      0.1152561756E-01

    ------------------------------------------------
       NWT REQUIRED            9 OUTER ITERATIONS 
       AND A TOTAL OF         10 INNER ITERATIONS.
    ------------------------------------------------

 OUTPUT CONTROL FOR STRESS PERIOD    1   TIME STEP  123
    SAVE HEAD FOR ALL LAYERS
 SOLVING FOR ZETA FOR LAYER     1 ZONE     2

     985 UPPER PART EQS.       972 LOWER PART EQS.    BAND WIDTH + 1 =   46
 STRESS PERIOD=  1 TIMESTEP=123 LAYER=  1 ZONE=  2 ACTIVE CELLS= 1957 NUMBER OF EQUATIONS=    1957
 UBUDSV SAVING "      ZETASRF  1" ON UNIT 55 AT TIME STEP123, STRESS PERIOD    1

 HEAD WILL BE SAVED ON UNIT   51 AT END OF TIME STEP  123, STRESS PERIOD    1
 
 SOLVING FOR HEAD 
                                                   Max.-Head-Change                         Max.-Flux-Residual
  Residual-Control   Outer-Iter.   Inner-Iter.     Column Row Layer    Maximum-Head-Change  Column Row Layer    Maximum-Flux-Residual          L2-NORM 
          0                 1           2            33    9     1      -0.1221180511E-02      53   20    1        -0.8799563950E+00      0.9069092559E+01
          0                 2           1            46   14     2       0.5895232223E-04      15   13    2         0.5042597136E-02      0.6927578131E-01
          0                 3           1            17   16     1       0.2933227358E-04      13   15    2         0.2047431703E-02      0.3525583615E-01
          0                 4           1            19   17     2       0.2562751162E-04      19   17    2         0.1305660099E-02      0.2551038216E-01
          0                 5           1            21   20     1       0.1644896240E-04      48   21    1         0.9537187674E-03      0.2062669216E-01
          0                 6           1            23   21     2       0.1770363161E-04      21   19    2         0.7747611511E-03      0.1764519193E-01
          0                 7           1            27   22     1       0.1240506568E-04      37   26    1         0.7598639361E-03      0.1550637310E-01
          0                 8           1            29   24     1       0.1489690423E-04      31   26    1         0.6838467750E-03      0.1381142317E-01
          0                 9           1            29   25     1       0.1084790914E-04      37   30    1         0.6876941869E-03      0.1243067201E-01
          0                10           1            30   27     1       0.1285752249E-04      37   30    1         0.6009393872E-03      0.1117161614E-01
          0                11           1            30   29     1       0.9354779887E-05      37   30    1         0.5952990269E-03      0.1011414888E-01

    ------------------------------------------------
       NWT REQUIRED           11 OUTER ITERATIONS 
       AND A TOTAL OF         12 INNER ITERATIONS.
    ------------------------------------------------

 OUTPUT CONTROL FOR STRESS PERIOD    1   TIME STEP  124
    SAVE HEAD FOR ALL LAYERS
 SOLVING FOR ZETA FOR LAYER     1 ZONE     2

     945 UPPER PART EQS.       956 LOWER PART EQS.    BAND WIDTH + 1 =   44
 STRESS PERIOD=  1 TIMESTEP=124 LAYER=  1 ZONE=  2 ACTIVE CELLS= 1901 NUMBER OF EQUATIONS=    1901
 UBUDSV SAVING "      ZETASRF  1" ON UNIT 55 AT TIME STEP124, STRESS PERIOD    1

 HEAD WILL BE SAVED ON UNIT   51 AT END OF TIME STEP  124, STRESS PERIOD    1
 
 SOLVING FOR HEAD 
                                                   Max.-Head-Change                         Max.-Flux-Residual
  Residual-Control   Outer-Iter.   Inner-Iter.     Column Row Layer    Maximum-Head-Change  Column Row Layer    Maximum-Flux-Residual          L2-NORM 
          0                 1           2            38    9     1      -0.1305277562E-02      53   26    1        -0.8985466533E+00      0.8492476556E+01
          0                 2           1            49   47     2      -0.7784007930E-04      29   51    2        -0.6069784397E-02      0.8464004707E-01
          0                 3           1            47   46     1      -0.3098150304E-04      48   49    1        -0.3531155017E-02      0.4558667439E-01
          0                 4           1            43   46     1      -0.3045381228E-04      43   50    1        -0.1779299074E-02      0.3051054118E-01
          0                 5           1            42   46     2      -0.1573853355E-04      50   39    1        -0.1301962779E-02      0.2294600133E-01
          0                 6           1            42   42     2      -0.1948201656E-04      44   24    2        -0.9917681786E-03      0.1831454582E-01
          0                 7           1            38   42     2      -0.1101804683E-04      36   40    2        -0.8908195763E-03      0.1570391587E-01
          0                 8           1            39   39     2      -0.1398095983E-04      36   40    2        -0.7669160927E-03      0.1354451269E-01
          0                 9           1            35   37     2      -0.9597707459E-05      36   40    2        -0.7363699253E-03      0.1222270463E-01

    ------------------------------------------------
       NWT REQUIRED            9 OUTER ITERATIONS 
       AND A TOTAL OF         10 INNER ITERATIONS.
    ------------------------------------------------

 OUTPUT CONTROL FOR STRESS PERIOD    1   TIME STEP  125
    SAVE HEAD FOR ALL LAYERS
 SOLVING FOR ZETA FOR LAYER     1 ZONE     2

     985 UPPER PART EQS.       972 LOWER PART EQS.    BAND WIDTH + 1 =   46
 STRESS PERIOD=  1 TIMESTEP=125 LAYER=  1 ZONE=  2 ACTIVE CELLS= 1957 NUMBER OF EQUATIONS=    1957
 UBUDSV SAVING "      ZETASRF  1" ON UNIT 55 AT TIME STEP125, STRESS PERIOD    1

 HEAD WILL BE SAVED ON UNIT   51 AT END OF TIME STEP  125, STRESS PERIOD    1
 
 SOLVING FOR HEAD 
                                                   Max.-Head-Change                         Max.-Flux-Residual
  Residual-Control   Outer-Iter.   Inner-Iter.     Column Row Layer    Maximum-Head-Change  Column Row Layer    Maximum-Flux-Residual          L2-NORM 
          0                 1           2            33    9     1      -0.1277992111E-02      35   53    1        -0.9090147646E+00      0.9444456877E+01
          0                 2           1            46   14     2       0.6039115459E-04      50   47    1         0.5214757366E-02      0.7138897967E-01
          0                 3           1            17   16     1       0.2995251075E-04      13   15    2         0.2106450641E-02      0.3621411259E-01
          0                 4           1            19   17     2       0.2602869178E-04      19   17    2         0.1328540270E-02      0.2601024268E-01
          0                 5           1            21   20     1       0.1643283507E-04      48   21    1         0.9752209288E-03      0.2095452505E-01
          0                 6           1            23   21     2       0.1795852659E-04      35   24    1         0.8016241612E-03      0.1783330559E-01
          0                 7           1            27   22     1       0.1221460567E-04      35   24    1         0.8411630236E-03      0.1566089705E-01
          0                 8           1            28   25     1       0.1509574485E-04      25   28    1         0.7577732107E-03      0.1391102155E-01
          0                 9           1            29   25     1       0.1063784168E-04      35   24    1         0.7349439315E-03      0.1253326592E-01
          0                10           1            30   27     1       0.1305721730E-04      25   28    1         0.6561884575E-03      0.1123941869E-01
          0                11           1            30   29     1       0.9227843978E-05      35   24    1         0.6060938899E-03      0.1018931851E-01

    ------------------------------------------------
       NWT REQUIRED           11 OUTER ITERATIONS 
       AND A TOTAL OF         12 INNER ITERATIONS.
    ------------------------------------------------

 OUTPUT CONTROL FOR STRESS PERIOD    1   TIME STEP  126
    SAVE HEAD FOR ALL LAYERS
 SOLVING FOR ZETA FOR LAYER     1 ZONE     2

     945 UPPER PART EQS.       956 LOWER PART EQS.    BAND WIDTH + 1 =   44
 STRESS PERIOD=  1 TIMESTEP=126 LAYER=  1 ZONE=  2 ACTIVE CELLS= 1901 NUMBER OF EQUATIONS=    1901
 UBUDSV SAVING "      ZETASRF  1" ON UNIT 55 AT TIME STEP126, STRESS PERIOD    1

 HEAD WILL BE SAVED ON UNIT   51 AT END OF TIME STEP  126, STRESS PERIOD    1
 
 SOLVING FOR HEAD 
                                                   Max.-Head-Change                         Max.-Flux-Residual
  Residual-Control   Outer-Iter.   Inner-Iter.     Column Row Layer    Maximum-Head-Change  Column Row Layer    Maximum-Flux-Residual          L2-NORM 
          0                 1           2            38    9     1      -0.1359752356E-02      53   26    1        -0.9320940736E+00      0.8867243279E+01
          0                 2           1            49   47     2      -0.7904957944E-04      29   51    2        -0.6254591892E-02      0.8666784817E-01
          0                 3           1            47   46     1      -0.3214160764E-04      48   49    1        -0.3603859366E-02      0.4714660483E-01
          0                 4           1            43   46     1      -0.3126285428E-04      43   50    1        -0.1847473742E-02      0.3187513297E-01
          0                 5           1            42   46     2      -0.1650609898E-04      50   39    1        -0.1344596854E-02      0.2424242455E-01
          0                 6           1            42   42     2      -0.2050257540E-04      43   39    2        -0.1083118551E-02      0.1948628504E-01
          0                 7           1            38   42     2      -0.1169370455E-04      39   41    2        -0.9367975955E-03      0.1679086375E-01
          0                 8           1            38   38     2      -0.1506969413E-04      42   38    2        -0.8083884434E-03      0.1450876919E-01
          0                 9           1            35   37     2      -0.1025406844E-04      36   40    2        -0.7355326521E-03      0.1310271122E-01
          0                10           1            33   35     2      -0.1233684510E-04      29   39    2        -0.6559780376E-03      0.1161944000E-01
          0                11           1            32   34     2      -0.9428478541E-05      29   39    2        -0.6125775412E-03      0.1058822140E-01

    ------------------------------------------------
       NWT REQUIRED           11 OUTER ITERATIONS 
       AND A TOTAL OF         12 INNER ITERATIONS.
    ------------------------------------------------

 OUTPUT CONTROL FOR STRESS PERIOD    1   TIME STEP  127
    SAVE HEAD FOR ALL LAYERS
 SOLVING FOR ZETA FOR LAYER     1 ZONE     2

     985 UPPER PART EQS.       972 LOWER PART EQS.    BAND WIDTH + 1 =   46
 STRESS PERIOD=  1 TIMESTEP=127 LAYER=  1 ZONE=  2 ACTIVE CELLS= 1957 NUMBER OF EQUATIONS=    1957
 UBUDSV SAVING "      ZETASRF  1" ON UNIT 55 AT TIME STEP127, STRESS PERIOD    1

 HEAD WILL BE SAVED ON UNIT   51 AT END OF TIME STEP  127, STRESS PERIOD    1
 
 SOLVING FOR HEAD 
                                                   Max.-Head-Change                         Max.-Flux-Residual
  Residual-Control   Outer-Iter.   Inner-Iter.     Column Row Layer    Maximum-Head-Change  Column Row Layer    Maximum-Flux-Residual          L2-NORM 
          0                 1           2            33    9     1      -0.1335480344E-02      35   53    1        -0.9433377908E+00      0.9836414765E+01
          0                 2           1            46   14     2       0.6249878880E-04      50   31    1         0.5539398829E-02      0.7428507018E-01
          0                 3           1            17   16     1       0.3114050958E-04      13   15    2         0.2178588826E-02      0.3825076640E-01
          0                 4           1            19   17     2       0.2708781369E-04      19   17    2         0.1378609121E-02      0.2767005555E-01
          0                 5           1            21   20     1       0.1714951547E-04      48   21    1         0.1029725563E-02      0.2235560536E-01
          0                 6           1            23   21     2       0.1897505202E-04      36   25    1         0.8660361202E-03      0.1903244155E-01
          0                 7           1            28   23     1       0.1285364111E-04      25   26    1         0.8960518587E-03      0.1671011816E-01
          0                 8           1            28   25     1       0.1614809839E-04      36   25    1         0.8061737052E-03      0.1484479915E-01
          0                 9           1            30   27     1       0.1130206882E-04      25   26    1         0.8012878345E-03      0.1335806143E-01
          0                10           1            30   27     1       0.1403336375E-04      36   25    1         0.6847647081E-03      0.1198599327E-01
          0                11           1            30   29     1       0.9833962125E-05      25   26    1         0.6665167861E-03      0.1085064287E-01

    ------------------------------------------------
       NWT REQUIRED           11 OUTER ITERATIONS 
       AND A TOTAL OF         12 INNER ITERATIONS.
    ------------------------------------------------

 OUTPUT CONTROL FOR STRESS PERIOD    1   TIME STEP  128
    SAVE HEAD FOR ALL LAYERS
 SOLVING FOR ZETA FOR LAYER     1 ZONE     2

     945 UPPER PART EQS.       956 LOWER PART EQS.    BAND WIDTH + 1 =   44
 STRESS PERIOD=  1 TIMESTEP=128 LAYER=  1 ZONE=  2 ACTIVE CELLS= 1901 NUMBER OF EQUATIONS=    1901
 UBUDSV SAVING "      ZETASRF  1" ON UNIT 55 AT TIME STEP128, STRESS PERIOD    1

 HEAD WILL BE SAVED ON UNIT   51 AT END OF TIME STEP  128, STRESS PERIOD    1
 
 SOLVING FOR HEAD 
                                                   Max.-Head-Change                         Max.-Flux-Residual
  Residual-Control   Outer-Iter.   Inner-Iter.     Column Row Layer    Maximum-Head-Change  Column Row Layer    Maximum-Flux-Residual          L2-NORM 
          0                 1           2            38    9     1      -0.1414813041E-02      53   26    1        -0.9661390468E+00      0.9260796610E+01
          0                 2           1            49   47     2      -0.8014400332E-04      29   51    2        -0.6437308711E-02      0.8863881569E-01
          0                 3           1            47   46     1      -0.3319697865E-04      48   49    1        -0.3671468412E-02      0.4843980128E-01
          0                 4           1            43   46     1      -0.3175563476E-04      43   50    1        -0.1908648773E-02      0.3279850064E-01
          0                 5           1            42   46     2      -0.1713011440E-04      50   39    1        -0.1376598019E-02      0.2494258106E-01
          0                 6           1            42   42     2      -0.2114811467E-04      42   38    2        -0.1123103550E-02      0.2013568670E-01
          0                 7           1            38   42     2      -0.1215901500E-04      39   41    2        -0.9723955898E-03      0.1731547406E-01
          0                 8           1            38   38     2      -0.1577453151E-04      42   38    2        -0.8412230058E-03      0.1503532568E-01
          0                 9           1            34   36     2      -0.1070397645E-04      42   38    2        -0.7336646028E-03      0.1354039651E-01
          0                10           1            33   35     2      -0.1300098302E-04      42   38    2        -0.6429907676E-03      0.1204683327E-01
          0                11           1            33   33     2      -0.9846301213E-05      34   22    2        -0.5970832292E-03      0.1095616033E-01

    ------------------------------------------------
       NWT REQUIRED           11 OUTER ITERATIONS 
       AND A TOTAL OF         12 INNER ITERATIONS.
    ------------------------------------------------

 OUTPUT CONTROL FOR STRESS PERIOD    1   TIME STEP  129
    SAVE HEAD FOR ALL LAYERS
 SOLVING FOR ZETA FOR LAYER     1 ZONE     2

     985 UPPER PART EQS.       972 LOWER PART EQS.    BAND WIDTH + 1 =   46
 STRESS PERIOD=  1 TIMESTEP=129 LAYER=  1 ZONE=  2 ACTIVE CELLS= 1957 NUMBER OF EQUATIONS=    1957
 UBUDSV SAVING "      ZETASRF  1" ON UNIT 55 AT TIME STEP129, STRESS PERIOD    1

 HEAD WILL BE SAVED ON UNIT   51 AT END OF TIME STEP  129, STRESS PERIOD    1
 
 SOLVING FOR HEAD 
                                                   Max.-Head-Change                         Max.-Flux-Residual
  Residual-Control   Outer-Iter.   Inner-Iter.     Column Row Layer    Maximum-Head-Change  Column Row Layer    Maximum-Flux-Residual          L2-NORM 
          0                 1           2            33    9     1      -0.1393960418E-02      35   53    1        -0.9781079036E+00      0.1024207315E+02
          0                 2           1            46   14     2       0.6403466174E-04      50   31    1         0.5853602442E-02      0.7664535860E-01
          0                 3           1            17   16     1       0.3174945034E-04      13   15    2         0.2238380102E-02      0.3937278523E-01
          0                 4           1            19   17     2       0.2749335846E-04      19   17    2         0.1405544242E-02      0.2832062768E-01
          0                 5           1            19   21     2       0.1737959153E-04      48   21    1         0.1051022214E-02      0.2278343015E-01
          0                 6           1            23   21     2       0.1900082824E-04      35   24    1         0.8484524474E-03      0.1937445059E-01
          0                 7           1            27   22     1       0.1299176886E-04      35   24    1         0.8959056175E-03      0.1701958080E-01
          0                 8           1            28   25     1       0.1600517889E-04      35   24    1         0.7839476524E-03      0.1512329565E-01
          0                 9           1            30   27     1       0.1146999964E-04      35   24    1         0.7875144223E-03      0.1364571912E-01
          0                10           1            30   27     1       0.1392979879E-04      35   24    1         0.6630890332E-03      0.1223959162E-01
                                                   Max.-Head-Change                         Max.-Flux-Residual
  Residual-Control   Outer-Iter.   Inner-Iter.     Column Row Layer    Maximum-Head-Change  Column Row Layer    Maximum-Flux-Residual          L2-NORM 
          0                11           1            30   29     1       0.1004717802E-04      35   24    1         0.6516226731E-03      0.1111192328E-01
          0                12           1            31   29     2       0.1157307538E-04      26   35    1         0.5645478321E-03      0.9992556599E-02
          0                13           1            31   30     1       0.8578053237E-05      30   37    1         0.5395324477E-03      0.9082096384E-02

    ------------------------------------------------
       NWT REQUIRED           13 OUTER ITERATIONS 
       AND A TOTAL OF         14 INNER ITERATIONS.
    ------------------------------------------------

 OUTPUT CONTROL FOR STRESS PERIOD    1   TIME STEP  130
    SAVE HEAD FOR ALL LAYERS
 SOLVING FOR ZETA FOR LAYER     1 ZONE     2

     945 UPPER PART EQS.       956 LOWER PART EQS.    BAND WIDTH + 1 =   44
 STRESS PERIOD=  1 TIMESTEP=130 LAYER=  1 ZONE=  2 ACTIVE CELLS= 1901 NUMBER OF EQUATIONS=    1901
 UBUDSV SAVING "      ZETASRF  1" ON UNIT 55 AT TIME STEP130, STRESS PERIOD    1

 HEAD WILL BE SAVED ON UNIT   51 AT END OF TIME STEP  130, STRESS PERIOD    1
 
 SOLVING FOR HEAD 
                                                   Max.-Head-Change                         Max.-Flux-Residual
  Residual-Control   Outer-Iter.   Inner-Iter.     Column Row Layer    Maximum-Head-Change  Column Row Layer    Maximum-Flux-Residual          L2-NORM 
          0                 1           2            38    9     1      -0.1470694964E-02      36    9    1        -0.1000619225E+01      0.9670539929E+01
          0                 2           1            49   47     2      -0.8174759296E-04      29   51    2        -0.6644073434E-02      0.9130683109E-01
          0                 3           1            47   46     1      -0.3480584190E-04      41   52    1        -0.3674136691E-02      0.5036140979E-01
          0                 4           1            43   46     1      -0.3292918666E-04      43   50    1        -0.1998278205E-02      0.3498201114E-01
          0                 5           1            41   45     2      -0.1847230422E-04      50   39    1        -0.1440365229E-02      0.2719022490E-01
          0                 6           1            42   42     2      -0.2259328517E-04      42   38    2        -0.1228936655E-02      0.2238042404E-01
          0                 7           1            37   41     2      -0.1352588553E-04      42   38    2        -0.1059478813E-02      0.1954366055E-01
          0                 8           1            38   38     2      -0.1744683839E-04      40   36    2        -0.9589390828E-03      0.1706006698E-01
          0                 9           1            34   36     2      -0.1221107402E-04      40   36    2        -0.8431812615E-03      0.1550292163E-01
          0                10           1            32   34     2      -0.1461520330E-04      40   36    2        -0.7996546191E-03      0.1377158101E-01
                                                   Max.-Head-Change                         Max.-Flux-Residual
  Residual-Control   Outer-Iter.   Inner-Iter.     Column Row Layer    Maximum-Head-Change  Column Row Layer    Maximum-Flux-Residual          L2-NORM 
          0                11           1            33   33     2      -0.1120669129E-04      30   24    2        -0.7160127916E-03      0.1259134364E-01
          0                12           1            31   33     2      -0.1207148450E-04      40   36    2        -0.6595597007E-03      0.1128056689E-01
          0                13           1            32   32     2      -0.9860594171E-05      30   24    2        -0.6017840414E-03      0.1029661401E-01

    ------------------------------------------------
       NWT REQUIRED           13 OUTER ITERATIONS 
       AND A TOTAL OF         14 INNER ITERATIONS.
    ------------------------------------------------

 OUTPUT CONTROL FOR STRESS PERIOD    1   TIME STEP  131
    SAVE HEAD FOR ALL LAYERS
 SOLVING FOR ZETA FOR LAYER     1 ZONE     2

     985 UPPER PART EQS.       972 LOWER PART EQS.    BAND WIDTH + 1 =   46
 STRESS PERIOD=  1 TIMESTEP=131 LAYER=  1 ZONE=  2 ACTIVE CELLS= 1957 NUMBER OF EQUATIONS=    1957
 UBUDSV SAVING "      ZETASRF  1" ON UNIT 55 AT TIME STEP131, STRESS PERIOD    1

 HEAD WILL BE SAVED ON UNIT   51 AT END OF TIME STEP  131, STRESS PERIOD    1
 
 SOLVING FOR HEAD 
                                                   Max.-Head-Change                         Max.-Flux-Residual
  Residual-Control   Outer-Iter.   Inner-Iter.     Column Row Layer    Maximum-Head-Change  Column Row Layer    Maximum-Flux-Residual          L2-NORM 
          0                 1           2            33    9     1      -0.1453085254E-02      35   53    1        -0.1013358844E+01      0.1066093418E+02
          0                 2           1            46   14     2       0.6591953687E-04      50   31    1         0.6188642862E-02      0.7947222133E-01
          0                 3           1            17   16     1       0.3262712842E-04      50   14    2         0.2397330301E-02      0.4114922188E-01
          0                 4           1            19   17     2       0.2858132474E-04      19   17    2         0.1448626406E-02      0.2964365305E-01
          0                 5           1            19   21     2       0.1783716195E-04      48   33    1         0.1096266298E-02      0.2385918549E-01
          0                 6           1            23   21     2       0.2009986566E-04      21   19    2         0.8676742015E-03      0.2025880986E-01
          0                 7           1            27   22     1       0.1331190994E-04      25   28    1         0.8673204330E-03      0.1776371736E-01
          0                 8           1            28   25     1       0.1714814145E-04      25   28    1         0.8444591683E-03      0.1577754045E-01
          0                 9           1            30   27     1       0.1179121352E-04      25   28    1         0.8021516719E-03      0.1419981815E-01
          0                10           1            31   28     1       0.1498012810E-04      25   28    1         0.7357407010E-03      0.1274092787E-01
                                                   Max.-Head-Change                         Max.-Flux-Residual
  Residual-Control   Outer-Iter.   Inner-Iter.     Column Row Layer    Maximum-Head-Change  Column Row Layer    Maximum-Flux-Residual          L2-NORM 
          0                11           1            30   29     1       0.1031973588E-04      25   28    1         0.6827643854E-03      0.1153916122E-01
          0                12           1            31   30     1       0.1243109206E-04      25   28    1         0.6132322755E-03      0.1038279741E-01
          0                13           1            31   30     1       0.8813620669E-05      25   28    1         0.5645675006E-03      0.9418309198E-02

    ------------------------------------------------
       NWT REQUIRED           13 OUTER ITERATIONS 
       AND A TOTAL OF         14 INNER ITERATIONS.
    ------------------------------------------------

 OUTPUT CONTROL FOR STRESS PERIOD    1   TIME STEP  132
    SAVE HEAD FOR ALL LAYERS
 SOLVING FOR ZETA FOR LAYER     1 ZONE     2

     945 UPPER PART EQS.       956 LOWER PART EQS.    BAND WIDTH + 1 =   44
 STRESS PERIOD=  1 TIMESTEP=132 LAYER=  1 ZONE=  2 ACTIVE CELLS= 1901 NUMBER OF EQUATIONS=    1901
 UBUDSV SAVING "      ZETASRF  1" ON UNIT 55 AT TIME STEP132, STRESS PERIOD    1

 HEAD WILL BE SAVED ON UNIT   51 AT END OF TIME STEP  132, STRESS PERIOD    1
 
 SOLVING FOR HEAD 
                                                   Max.-Head-Change                         Max.-Flux-Residual
  Residual-Control   Outer-Iter.   Inner-Iter.     Column Row Layer    Maximum-Head-Change  Column Row Layer    Maximum-Flux-Residual          L2-NORM 
          0                 1           2            38    9     1      -0.1526868077E-02      36    9    1        -0.1035512137E+01      0.1009513210E+02
          0                 2           1            48   48     2      -0.8306415128E-04      50   31    1        -0.6863795538E-02      0.9351623558E-01
          0                 3           1            47   46     1      -0.3589153424E-04      41   52    1        -0.3717577748E-02      0.5186482473E-01
          0                 4           1            43   46     1      -0.3365803745E-04      43   50    1        -0.2045383203E-02      0.3609239452E-01
          0                 5           1            41   45     2      -0.1912227712E-04      50   39    1        -0.1479034923E-02      0.2805520117E-01
          0                 6           1            42   42     2      -0.2359611195E-04      40   40    2        -0.1255414553E-02      0.2315400183E-01
          0                 7           1            37   41     2      -0.1399850716E-04      37   39    2        -0.1069820666E-02      0.2012957431E-01
          0                 8           1            38   38     2      -0.1856246969E-04      40   36    2        -0.1001727026E-02      0.1762844220E-01
          0                 9           1            34   37     2      -0.1262615381E-04      37   39    2        -0.8971286593E-03      0.1592421774E-01
          0                10           1            32   34     2      -0.1565681713E-04      40   36    2        -0.8334701897E-03      0.1418833132E-01
                                                   Max.-Head-Change                         Max.-Flux-Residual
  Residual-Control   Outer-Iter.   Inner-Iter.     Column Row Layer    Maximum-Head-Change  Column Row Layer    Maximum-Flux-Residual          L2-NORM 
          0                11           1            32   32     2      -0.1156579257E-04      37   39    2        -0.7270102981E-03      0.1291709299E-01
          0                12           1            31   33     2      -0.1288055440E-04      40   36    2        -0.6867349147E-03      0.1159417720E-01
          0                13           1            32   32     2      -0.1016968662E-04      37   39    2        -0.5872268026E-03      0.1055819274E-01
          0                14           1            32   32     2      -0.1039605583E-04      40   36    2        -0.5646087739E-03      0.9518344254E-02
          0                15           1            32   32     2      -0.8695106764E-05      37   39    2        -0.4760944950E-03      0.8659456104E-02

    ------------------------------------------------
       NWT REQUIRED           15 OUTER ITERATIONS 
       AND A TOTAL OF         16 INNER ITERATIONS.
    ------------------------------------------------

 OUTPUT CONTROL FOR STRESS PERIOD    1   TIME STEP  133
    SAVE HEAD FOR ALL LAYERS
 SOLVING FOR ZETA FOR LAYER     1 ZONE     2

     985 UPPER PART EQS.       972 LOWER PART EQS.    BAND WIDTH + 1 =   46
 STRESS PERIOD=  1 TIMESTEP=133 LAYER=  1 ZONE=  2 ACTIVE CELLS= 1957 NUMBER OF EQUATIONS=    1957
 UBUDSV SAVING "      ZETASRF  1" ON UNIT 55 AT TIME STEP133, STRESS PERIOD    1

 HEAD WILL BE SAVED ON UNIT   51 AT END OF TIME STEP  133, STRESS PERIOD    1
 
 SOLVING FOR HEAD 
                                                   Max.-Head-Change                         Max.-Flux-Residual
  Residual-Control   Outer-Iter.   Inner-Iter.     Column Row Layer    Maximum-Head-Change  Column Row Layer    Maximum-Flux-Residual          L2-NORM 
          0                 1           2            33    9     1      -0.1512861470E-02      35   53    1        -0.1049033167E+01      0.1109138673E+02
          0                 2           1            46   14     2       0.6789222822E-04      50   31    1         0.6530040555E-02      0.8248738574E-01
          0                 3           1            17   16     1       0.3371698716E-04      48   12    2         0.2506133627E-02      0.4319668332E-01
          0                 4           1            19   17     2       0.2973969393E-04      50   31    1         0.1530038993E-02      0.3131420317E-01
          0                 5           1            19   21     2       0.1859354330E-04      48   33    1         0.1177776634E-02      0.2532720485E-01
          0                 6           1            23   21     2       0.2134631074E-04      25   26    1         0.9326041102E-03      0.2156921186E-01
          0                 7           1            28   23     1       0.1398061089E-04      25   26    1         0.9918425148E-03      0.1897838842E-01
          0                 8           1            29   25     1       0.1857661206E-04      30   25    1         0.8909762379E-03      0.1685254010E-01
          0                 9           1            30   27     1       0.1244314040E-04      30   25    1         0.9158070642E-03      0.1521365182E-01
          0                10           1            31   28     1       0.1617937539E-04      30   25    1         0.7783209923E-03      0.1361646716E-01
                                                   Max.-Head-Change                         Max.-Flux-Residual
  Residual-Control   Outer-Iter.   Inner-Iter.     Column Row Layer    Maximum-Head-Change  Column Row Layer    Maximum-Flux-Residual          L2-NORM 
          0                11           1            30   29     1       0.1090012489E-04      30   25    1         0.7730094095E-03      0.1236581256E-01
          0                12           1            31   30     1       0.1339058171E-04      30   25    1         0.6486146774E-03      0.1109326125E-01
          0                13           1            31   30     1       0.9319051976E-05      30   25    1         0.6310860243E-03      0.1008578753E-01

    ------------------------------------------------
       NWT REQUIRED           13 OUTER ITERATIONS 
       AND A TOTAL OF         14 INNER ITERATIONS.
    ------------------------------------------------

 OUTPUT CONTROL FOR STRESS PERIOD    1   TIME STEP  134
    SAVE HEAD FOR ALL LAYERS
 SOLVING FOR ZETA FOR LAYER     1 ZONE     2

     945 UPPER PART EQS.       956 LOWER PART EQS.    BAND WIDTH + 1 =   44
 STRESS PERIOD=  1 TIMESTEP=134 LAYER=  1 ZONE=  2 ACTIVE CELLS= 1901 NUMBER OF EQUATIONS=    1901
 UBUDSV SAVING "      ZETASRF  1" ON UNIT 55 AT TIME STEP134, STRESS PERIOD    1

 HEAD WILL BE SAVED ON UNIT   51 AT END OF TIME STEP  134, STRESS PERIOD    1
 
 SOLVING FOR HEAD 
                                                   Max.-Head-Change                         Max.-Flux-Residual
  Residual-Control   Outer-Iter.   Inner-Iter.     Column Row Layer    Maximum-Head-Change  Column Row Layer    Maximum-Flux-Residual          L2-NORM 
          0                 1           2            38    9     1      -0.1583492845E-02      36    9    1        -0.1070784501E+01      0.1053263463E+02
          0                 2           1            48   48     2      -0.8440401661E-04      50   31    1        -0.7129428670E-02      0.9574814269E-01
          0                 3           1            47   46     1      -0.3710575427E-04      41   52    1        -0.3758715923E-02      0.5317072514E-01
          0                 4           1            45   45     2      -0.3398931002E-04      50   31    1        -0.2107453958E-02      0.3718612177E-01
          0                 5           1            41   45     2      -0.1989919104E-04      40   40    2        -0.1622294856E-02      0.2902633258E-01
          0                 6           1            42   42     2      -0.2407393598E-04      40   40    2        -0.1514275620E-02      0.2404729236E-01
          0                 7           1            37   41     2      -0.1461080427E-04      40   40    2        -0.1350114482E-02      0.2093908786E-01
          0                 8           1            38   38     2      -0.1922698028E-04      40   40    2        -0.1144051463E-02      0.1837514082E-01
          0                 9           1            33   35     2      -0.1317324252E-04      40   40    2        -0.1037639069E-02      0.1660932413E-01
          0                10           1            32   34     2      -0.1636303152E-04      40   40    2        -0.8765643637E-03      0.1480632765E-01
                                                   Max.-Head-Change                         Max.-Flux-Residual
  Residual-Control   Outer-Iter.   Inner-Iter.     Column Row Layer    Maximum-Head-Change  Column Row Layer    Maximum-Flux-Residual          L2-NORM 
          0                11           1            32   32     2      -0.1202765142E-04      40   40    2        -0.7977532337E-03      0.1348692580E-01
          0                12           1            31   33     2      -0.1353478272E-04      40   40    2        -0.6915132160E-03      0.1210071035E-01
          0                13           1            32   32     2      -0.1052308167E-04      39   25    2        -0.6317938714E-03      0.1102574448E-01
          0                14           1            32   32     2      -0.1097217468E-04      40   40    2        -0.5557030034E-03      0.9931562890E-02
          0                15           1            32   32     2      -0.8953039685E-05      39   25    2        -0.5189392471E-03      0.9041507966E-02

    ------------------------------------------------
       NWT REQUIRED           15 OUTER ITERATIONS 
       AND A TOTAL OF         16 INNER ITERATIONS.
    ------------------------------------------------

 OUTPUT CONTROL FOR STRESS PERIOD    1   TIME STEP  135
    SAVE HEAD FOR ALL LAYERS
 SOLVING FOR ZETA FOR LAYER     1 ZONE     2

     985 UPPER PART EQS.       972 LOWER PART EQS.    BAND WIDTH + 1 =   46
 STRESS PERIOD=  1 TIMESTEP=135 LAYER=  1 ZONE=  2 ACTIVE CELLS= 1957 NUMBER OF EQUATIONS=    1957
 UBUDSV SAVING "      ZETASRF  1" ON UNIT 55 AT TIME STEP135, STRESS PERIOD    1

 HEAD WILL BE SAVED ON UNIT   51 AT END OF TIME STEP  135, STRESS PERIOD    1
 
 SOLVING FOR HEAD 
                                                   Max.-Head-Change                         Max.-Flux-Residual
  Residual-Control   Outer-Iter.   Inner-Iter.     Column Row Layer    Maximum-Head-Change  Column Row Layer    Maximum-Flux-Residual          L2-NORM 
          0                 1           2            33    9     1      -0.1573404777E-02      35   53    1        -0.1085043989E+01      0.1153161578E+02
          0                 2           1            46   14     2       0.6952221845E-04      50   31    1         0.6849690331E-02      0.8509697015E-01
          0                 3           1            17   16     1       0.3433047286E-04      48   12    2         0.2586427082E-02      0.4442908657E-01
          0                 4           1            19   17     2       0.3036899200E-04      50   31    1         0.1584060610E-02      0.3203689770E-01
          0                 5           1            19   21     2       0.1881577551E-04      48   33    1         0.1224879710E-02      0.2577971586E-01
          0                 6           1            23   21     2       0.2177947084E-04      36   25    1         0.9625766136E-03      0.2189336054E-01
          0                 7           1            28   23     1       0.1401720223E-04      36   25    1         0.9796543510E-03      0.1917760480E-01
          0                 8           1            30   24     1       0.1881838150E-04      36   25    1         0.9099897611E-03      0.1702956971E-01
          0                 9           1            30   27     1       0.1249725154E-04      36   25    1         0.8775649611E-03      0.1531262086E-01
          0                10           1            31   28     1       0.1650144581E-04      36   25    1         0.7769477861E-03      0.1373251097E-01
                                                   Max.-Head-Change                         Max.-Flux-Residual
  Residual-Control   Outer-Iter.   Inner-Iter.     Column Row Layer    Maximum-Head-Change  Column Row Layer    Maximum-Flux-Residual          L2-NORM 
          0                11           1            31   29     2       0.1097402961E-04      36   25    1         0.7361735615E-03      0.1242803886E-01
          0                12           1            31   30     1       0.1365033518E-04      36   25    1         0.6412242518E-03      0.1117785020E-01
          0                13           1            31   30     1       0.9396341942E-05      34   37    1         0.6059510751E-03      0.1013348378E-01

    ------------------------------------------------
       NWT REQUIRED           13 OUTER ITERATIONS 
       AND A TOTAL OF         14 INNER ITERATIONS.
    ------------------------------------------------

 OUTPUT CONTROL FOR STRESS PERIOD    1   TIME STEP  136
    SAVE HEAD FOR ALL LAYERS
 SOLVING FOR ZETA FOR LAYER     1 ZONE     2

     945 UPPER PART EQS.       956 LOWER PART EQS.    BAND WIDTH + 1 =   44
 STRESS PERIOD=  1 TIMESTEP=136 LAYER=  1 ZONE=  2 ACTIVE CELLS= 1901 NUMBER OF EQUATIONS=    1901
 UBUDSV SAVING "      ZETASRF  1" ON UNIT 55 AT TIME STEP136, STRESS PERIOD    1

 HEAD WILL BE SAVED ON UNIT   51 AT END OF TIME STEP  136, STRESS PERIOD    1
 
 SOLVING FOR HEAD 
                                                   Max.-Head-Change                         Max.-Flux-Residual
  Residual-Control   Outer-Iter.   Inner-Iter.     Column Row Layer    Maximum-Head-Change  Column Row Layer    Maximum-Flux-Residual          L2-NORM 
          0                 1           2            38    9     1      -0.1640569991E-02      36    9    1        -0.1106382952E+01      0.1098135997E+02
          0                 2           1            48   48     2      -0.8586964772E-04      50   31    1        -0.7402855350E-02      0.9815602623E-01
          0                 3           1            47   46     1      -0.3820793405E-04      41   52    1        -0.3803502581E-02      0.5467957780E-01
          0                 4           1            45   45     2      -0.3491496653E-04      43   50    1        -0.2125090149E-02      0.3848129470E-01
          0                 5           1            40   44     2      -0.2058776252E-04      41   39    2        -0.1560673670E-02      0.3018701297E-01
          0                 6           1            42   42     2      -0.2521618512E-04      41   39    2        -0.1548412184E-02      0.2515655397E-01
          0                 7           1            37   41     2      -0.1511906680E-04      41   39    2        -0.1286729925E-02      0.2200482977E-01
          0                 8           1            38   36     2      -0.2048481940E-04      24   24    2        -0.1162302909E-02      0.1934946962E-01
          0                 9           1            33   35     2      -0.1371610563E-04      24   24    2        -0.1161893896E-02      0.1755730841E-01
          0                10           1            31   33     2      -0.1751488755E-04      24   24    2        -0.1018557916E-02      0.1562419606E-01
                                                   Max.-Head-Change                         Max.-Flux-Residual
  Residual-Control   Outer-Iter.   Inner-Iter.     Column Row Layer    Maximum-Head-Change  Column Row Layer    Maximum-Flux-Residual          L2-NORM 
          0                11           1            32   32     2      -0.1250055369E-04      24   24    2        -0.9805989812E-03      0.1427508578E-01
          0                12           1            31   33     2      -0.1444089368E-04      24   24    2        -0.8687373665E-03      0.1277359070E-01
          0                13           1            32   32     2      -0.1090346239E-04      24   24    2        -0.8093932609E-03      0.1166470972E-01
          0                14           1            32   32     2      -0.1168934207E-04      24   24    2        -0.7308194010E-03      0.1048148897E-01
          0                15           1            32   32     2      -0.9253097531E-05      24   24    2        -0.6655398445E-03      0.9558036950E-02

    ------------------------------------------------
       NWT REQUIRED           15 OUTER ITERATIONS 
       AND A TOTAL OF         16 INNER ITERATIONS.
    ------------------------------------------------

 OUTPUT CONTROL FOR STRESS PERIOD    1   TIME STEP  137
    SAVE HEAD FOR ALL LAYERS
 SOLVING FOR ZETA FOR LAYER     1 ZONE     2

     985 UPPER PART EQS.       972 LOWER PART EQS.    BAND WIDTH + 1 =   46
 STRESS PERIOD=  1 TIMESTEP=137 LAYER=  1 ZONE=  2 ACTIVE CELLS= 1957 NUMBER OF EQUATIONS=    1957
 UBUDSV SAVING "      ZETASRF  1" ON UNIT 55 AT TIME STEP137, STRESS PERIOD    1

 HEAD WILL BE SAVED ON UNIT   51 AT END OF TIME STEP  137, STRESS PERIOD    1
 
 SOLVING FOR HEAD 
                                                   Max.-Head-Change                         Max.-Flux-Residual
  Residual-Control   Outer-Iter.   Inner-Iter.     Column Row Layer    Maximum-Head-Change  Column Row Layer    Maximum-Flux-Residual          L2-NORM 
          0                 1           2            33    9     1      -0.1634529084E-02      35   53    1        -0.1121401944E+01      0.1198093135E+02
          0                 2           1            46   14     2       0.7116204057E-04      50   31    1         0.7169047390E-02      0.8775131041E-01
          0                 3           1            17   16     1       0.3493484995E-04      49   15    2         0.2677622597E-02      0.4547039261E-01
          0                 4           1            19   17     2       0.3096552550E-04      50   31    1         0.1633150287E-02      0.3272579250E-01
          0                 5           1            19   21     2       0.1899704112E-04      48   33    1         0.1269425696E-02      0.2627167009E-01
          0                 6           1            22   20     2       0.2226231703E-04      35   24    1         0.9473357893E-03      0.2229801177E-01
          0                 7           1            27   22     1       0.1401933858E-04      35   24    1         0.1024984272E-02      0.1953759957E-01
          0                 8           1            30   24     1       0.1923576544E-04      35   24    1         0.8819756853E-03      0.1733791118E-01
          0                 9           1            30   27     1       0.1250173672E-04      35   24    1         0.9105558210E-03      0.1561785198E-01
          0                10           1            31   28     1       0.1688959322E-04      26   35    1         0.7566952216E-03      0.1398276509E-01
                                                   Max.-Head-Change                         Max.-Flux-Residual
  Residual-Control   Outer-Iter.   Inner-Iter.     Column Row Layer    Maximum-Head-Change  Column Row Layer    Maximum-Flux-Residual          L2-NORM 
          0                11           1            31   30     1       0.1099947647E-04      35   24    1         0.7537703704E-03      0.1267941822E-01
          0                12           1            31   30     1       0.1396571347E-04      26   35    1         0.6469493262E-03      0.1138086540E-01
          0                13           1            31   30     1       0.9423396485E-05      35   24    1         0.6102516813E-03      0.1033551625E-01

    ------------------------------------------------
       NWT REQUIRED           13 OUTER ITERATIONS 
       AND A TOTAL OF         14 INNER ITERATIONS.
    ------------------------------------------------

 OUTPUT CONTROL FOR STRESS PERIOD    1   TIME STEP  138
    SAVE HEAD FOR ALL LAYERS
 SOLVING FOR ZETA FOR LAYER     1 ZONE     2

     945 UPPER PART EQS.       956 LOWER PART EQS.    BAND WIDTH + 1 =   44
 STRESS PERIOD=  1 TIMESTEP=138 LAYER=  1 ZONE=  2 ACTIVE CELLS= 1901 NUMBER OF EQUATIONS=    1901
 UBUDSV SAVING "      ZETASRF  1" ON UNIT 55 AT TIME STEP138, STRESS PERIOD    1

 HEAD WILL BE SAVED ON UNIT   51 AT END OF TIME STEP  138, STRESS PERIOD    1
 
 SOLVING FOR HEAD 
                                                   Max.-Head-Change                         Max.-Flux-Residual
  Residual-Control   Outer-Iter.   Inner-Iter.     Column Row Layer    Maximum-Head-Change  Column Row Layer    Maximum-Flux-Residual          L2-NORM 
          0                 1           2            38    9     1      -0.1698018739E-02      36    9    1        -0.1142290531E+01      0.1143998670E+02
          0                 2           1            48   48     2      -0.8737836976E-04      50   31    1        -0.7678239961E-02      0.1006264933E+00
          0                 3           1            47   46     1      -0.3925567611E-04      41   52    1        -0.3848383798E-02      0.5653572831E-01
          0                 4           1            45   45     2      -0.3596921576E-04      50   31    1        -0.2099187299E-02      0.3986624165E-01
          0                 5           1            40   44     2      -0.2122046366E-04      50   39    1        -0.1589221048E-02      0.3138875727E-01
          0                 6           1            41   41     2      -0.2676959567E-04      39   37    2        -0.1315084520E-02      0.2617043940E-01
          0                 7           1            37   41     2      -0.1544732638E-04      38   24    2        -0.1328136048E-02      0.2284430213E-01
          0                 8           1            38   36     2      -0.2247389420E-04      39   37    2        -0.1137538088E-02      0.2007824147E-01
          0                 9           1            33   36     2      -0.1393662139E-04      38   24    2        -0.1175474428E-02      0.1813029149E-01
          0                10           1            31   33     2      -0.1949943015E-04      38   34    2        -0.9613174891E-03      0.1612312420E-01
                                                   Max.-Head-Change                         Max.-Flux-Residual
  Residual-Control   Outer-Iter.   Inner-Iter.     Column Row Layer    Maximum-Head-Change  Column Row Layer    Maximum-Flux-Residual          L2-NORM 
          0                11           1            32   32     2      -0.1249425948E-04      38   24    2        -0.9705338592E-03      0.1466956118E-01
          0                12           1            32   32     2      -0.1598133800E-04      38   34    2        -0.8007978524E-03      0.1311092864E-01
          0                13           1            32   32     2      -0.1081781362E-04      38   24    2        -0.7853576121E-03      0.1194175441E-01
          0                14           1            32   32     2      -0.1280917788E-04      38   34    2        -0.6580011252E-03      0.1071515166E-01
          0                15           1            32   32     2      -0.9169558139E-05      38   24    2        -0.6352549625E-03      0.9757548815E-02

    ------------------------------------------------
       NWT REQUIRED           15 OUTER ITERATIONS 
       AND A TOTAL OF         16 INNER ITERATIONS.
    ------------------------------------------------

 OUTPUT CONTROL FOR STRESS PERIOD    1   TIME STEP  139
    SAVE HEAD FOR ALL LAYERS
 SOLVING FOR ZETA FOR LAYER     1 ZONE     2

     985 UPPER PART EQS.       972 LOWER PART EQS.    BAND WIDTH + 1 =   46
 STRESS PERIOD=  1 TIMESTEP=139 LAYER=  1 ZONE=  2 ACTIVE CELLS= 1957 NUMBER OF EQUATIONS=    1957
 UBUDSV SAVING "      ZETASRF  1" ON UNIT 55 AT TIME STEP139, STRESS PERIOD    1

 HEAD WILL BE SAVED ON UNIT   51 AT END OF TIME STEP  139, STRESS PERIOD    1
 
 SOLVING FOR HEAD 
                                                   Max.-Head-Change                         Max.-Flux-Residual
  Residual-Control   Outer-Iter.   Inner-Iter.     Column Row Layer    Maximum-Head-Change  Column Row Layer    Maximum-Flux-Residual          L2-NORM 
          0                 1           2            33    9     1      -0.1696173542E-02      35   53    1        -0.1158080021E+01      0.1243835612E+02
          0                 2           1            46   14     2       0.7283900430E-04      50   31    1         0.7490028706E-02      0.9048253187E-01
          0                 3           1            17   16     1       0.3559284988E-04      49   15    2         0.2750763553E-02      0.4655438471E-01
          0                 4           1            19   17     2       0.3153231967E-04      50   31    1         0.1691070977E-02      0.3345087351E-01
          0                 5           1            19   21     2       0.1928855617E-04      48   33    1         0.1316420265E-02      0.2681432775E-01
          0                 6           1            22   20     2       0.2270542735E-04      21   19    2         0.9606003065E-03      0.2270965841E-01
          0                 7           1            27   22     1       0.1413011320E-04      35   24    1         0.1038232952E-02      0.1988156335E-01
          0                 8           1            30   24     1       0.1961806301E-04      35   24    1         0.8928685375E-03      0.1762484430E-01
          0                 9           1            30   27     1       0.1259830808E-04      35   24    1         0.9258592830E-03      0.1587780588E-01
          0                10           1            31   28     1       0.1727228013E-04      35   24    1         0.7566933156E-03      0.1420286602E-01
                                                   Max.-Head-Change                         Max.-Flux-Residual
  Residual-Control   Outer-Iter.   Inner-Iter.     Column Row Layer    Maximum-Head-Change  Column Row Layer    Maximum-Flux-Residual          L2-NORM 
          0                11           1            31   30     1       0.1110554882E-04      35   24    1         0.7672476790E-03      0.1288432660E-01
          0                12           1            31   30     1       0.1428707320E-04      30   37    1         0.6464017608E-03      0.1155428737E-01
          0                13           1            31   30     1       0.9519695458E-05      30   37    1         0.6436895819E-03      0.1049826138E-01

    ------------------------------------------------
       NWT REQUIRED           13 OUTER ITERATIONS 
       AND A TOTAL OF         14 INNER ITERATIONS.
    ------------------------------------------------

 OUTPUT CONTROL FOR STRESS PERIOD    1   TIME STEP  140
    SAVE HEAD FOR ALL LAYERS
 SOLVING FOR ZETA FOR LAYER     1 ZONE     2

     945 UPPER PART EQS.       956 LOWER PART EQS.    BAND WIDTH + 1 =   44
 STRESS PERIOD=  1 TIMESTEP=140 LAYER=  1 ZONE=  2 ACTIVE CELLS= 1901 NUMBER OF EQUATIONS=    1901
 UBUDSV SAVING "      ZETASRF  1" ON UNIT 55 AT TIME STEP140, STRESS PERIOD    1

 HEAD WILL BE SAVED ON UNIT   51 AT END OF TIME STEP  140, STRESS PERIOD    1
 
 SOLVING FOR HEAD 
                                                   Max.-Head-Change                         Max.-Flux-Residual
  Residual-Control   Outer-Iter.   Inner-Iter.     Column Row Layer    Maximum-Head-Change  Column Row Layer    Maximum-Flux-Residual          L2-NORM 
          0                 1           2            38    9     1      -0.1755789092E-02      36    9    1        -0.1178474340E+01      0.1190726938E+02
          0                 2           1            48   48     2      -0.8891926521E-04      50   31    1        -0.7954342222E-02      0.1031380445E+00
          0                 3           1            47   46     1      -0.4033027624E-04      41   52    1        -0.4029302957E-02      0.5823962761E-01
          0                 4           1            45   45     2      -0.3682026961E-04      50   31    1        -0.2167577463E-02      0.4121698770E-01
          0                 5           1            40   44     2      -0.2196505330E-04      50   39    1        -0.1628443574E-02      0.3245780209E-01
          0                 6           1            41   41     2      -0.2797689415E-04      48   41    1        -0.1168976944E-02      0.2711862637E-01
          0                 7           1            36   40     2      -0.1592331601E-04      30   36    2        -0.1140628941E-02      0.2364304368E-01
          0                 8           1            38   36     2      -0.2412238252E-04      30   36    2        -0.1049050478E-02      0.2083739601E-01
          0                 9           1            33   36     2      -0.1437062559E-04      30   36    2        -0.1148561554E-02      0.1879096127E-01
          0                10           1            31   33     2      -0.2131471204E-04      30   36    2        -0.9623467447E-03      0.1671112069E-01
                                                   Max.-Head-Change                         Max.-Flux-Residual
  Residual-Control   Outer-Iter.   Inner-Iter.     Column Row Layer    Maximum-Head-Change  Column Row Layer    Maximum-Flux-Residual          L2-NORM 
          0                11           1            32   32     2      -0.1261184753E-04      30   36    2        -0.9958217066E-03      0.1519691787E-01
          0                12           1            32   32     2      -0.1748334491E-04      30   36    2        -0.8169567049E-03      0.1354769683E-01
          0                13           1            32   32     2      -0.1081796709E-04      30   36    2        -0.8186981806E-03      0.1234295005E-01
          0                14           1            32   32     2      -0.1396164361E-04      30   36    2        -0.6765978466E-03      0.1103668904E-01
          0                15           1            32   32     2      -0.9116996626E-05      30   36    2        -0.6648446752E-03      0.1005835784E-01

    ------------------------------------------------
       NWT REQUIRED           15 OUTER ITERATIONS 
       AND A TOTAL OF         16 INNER ITERATIONS.
    ------------------------------------------------

 OUTPUT CONTROL FOR STRESS PERIOD    1   TIME STEP  141
    SAVE HEAD FOR ALL LAYERS
 SOLVING FOR ZETA FOR LAYER     1 ZONE     2

     985 UPPER PART EQS.       972 LOWER PART EQS.    BAND WIDTH + 1 =   46
 STRESS PERIOD=  1 TIMESTEP=141 LAYER=  1 ZONE=  2 ACTIVE CELLS= 1957 NUMBER OF EQUATIONS=    1957
 UBUDSV SAVING "      ZETASRF  1" ON UNIT 55 AT TIME STEP141, STRESS PERIOD    1

 HEAD WILL BE SAVED ON UNIT   51 AT END OF TIME STEP  141, STRESS PERIOD    1
 
 SOLVING FOR HEAD 
                                                   Max.-Head-Change                         Max.-Flux-Residual
  Residual-Control   Outer-Iter.   Inner-Iter.     Column Row Layer    Maximum-Head-Change  Column Row Layer    Maximum-Flux-Residual          L2-NORM 
          0                 1           2            33    9     1      -0.1758301759E-02      35   53    1        -0.1195034759E+01      0.1290291061E+02
          0                 2           1            46   14     2       0.7453468247E-04      50   31    1         0.7811194926E-02      0.9325856782E-01
          0                 3           1            17   16     1       0.3617369477E-04      13   15    2         0.2984906190E-02      0.4810151664E-01
          0                 4           1            19   17     2       0.3223870273E-04      50   31    1         0.1760837265E-02      0.3438281568E-01
          0                 5           1            19   21     2       0.1951099484E-04      48   33    1         0.1367086998E-02      0.2747431776E-01
          0                 6           1            22   20     2       0.2330517758E-04      37   24    1         0.1056181625E-02      0.2320736917E-01
          0                 7           1            27   22     1       0.1417251331E-04      27   24    1         0.1073531818E-02      0.2031434247E-01
          0                 8           1            28   24     1       0.2025874682E-04      37   24    1         0.9415559570E-03      0.1797148619E-01
          0                 9           1            30   27     1       0.1264214427E-04      27   24    1         0.9601141494E-03      0.1621203295E-01
          0                10           1            31   28     1       0.1774808016E-04      27   24    1         0.7883237668E-03      0.1446658580E-01
                                                   Max.-Head-Change                         Max.-Flux-Residual
  Residual-Control   Outer-Iter.   Inner-Iter.     Column Row Layer    Maximum-Head-Change  Column Row Layer    Maximum-Flux-Residual          L2-NORM 
          0                11           1            31   30     1       0.1117727815E-04      27   24    1         0.7924621760E-03      0.1314459118E-01
          0                12           1            31   30     1       0.1462952069E-04      25   34    1         0.6587843763E-03      0.1176153619E-01
          0                13           1            31   30     1       0.9601369998E-05      25   34    1         0.6579431709E-03      0.1070150532E-01

    ------------------------------------------------
       NWT REQUIRED           13 OUTER ITERATIONS 
       AND A TOTAL OF         14 INNER ITERATIONS.
    ------------------------------------------------

 OUTPUT CONTROL FOR STRESS PERIOD    1   TIME STEP  142
    SAVE HEAD FOR ALL LAYERS
 SOLVING FOR ZETA FOR LAYER     1 ZONE     2

     945 UPPER PART EQS.       956 LOWER PART EQS.    BAND WIDTH + 1 =   44
 STRESS PERIOD=  1 TIMESTEP=142 LAYER=  1 ZONE=  2 ACTIVE CELLS= 1901 NUMBER OF EQUATIONS=    1901
 UBUDSV SAVING "      ZETASRF  1" ON UNIT 55 AT TIME STEP142, STRESS PERIOD    1

 HEAD WILL BE SAVED ON UNIT   51 AT END OF TIME STEP  142, STRESS PERIOD    1
 
 SOLVING FOR HEAD 
                                                   Max.-Head-Change                         Max.-Flux-Residual
  Residual-Control   Outer-Iter.   Inner-Iter.     Column Row Layer    Maximum-Head-Change  Column Row Layer    Maximum-Flux-Residual          L2-NORM 
          0                 1           2            38    9     1      -0.1813846887E-02      36    9    1        -0.1214905243E+01      0.1238212230E+02
          0                 2           1            48   48     2      -0.9050232307E-04      50   31    1        -0.8231828367E-02      0.1057005895E+00
          0                 3           1            47   46     1      -0.4145265315E-04      41   52    1        -0.4074217376E-02      0.5970689569E-01
          0                 4           1            45   45     2      -0.3743645787E-04      50   31    1        -0.2240643032E-02      0.4256433866E-01
          0                 5           1            40   44     2      -0.2287662387E-04      48   33    1        -0.1777636979E-02      0.3367053861E-01
          0                 6           1            41   41     2      -0.2868452515E-04      38   36    2        -0.1262728469E-02      0.2823920603E-01
          0                 7           1            36   40     2      -0.1672858059E-04      37   37    2        -0.1311190841E-02      0.2462722172E-01
          0                 8           1            38   37     2      -0.2516045845E-04      38   36    2        -0.1133359459E-02      0.2173256148E-01
          0                 9           1            32   35     2      -0.1495925786E-04      37   37    2        -0.1169920085E-02      0.1954120203E-01
          0                10           1            31   33     2      -0.2235853576E-04      38   36    2        -0.9391596222E-03      0.1741553285E-01
                                                   Max.-Head-Change                         Max.-Flux-Residual
  Residual-Control   Outer-Iter.   Inner-Iter.     Column Row Layer    Maximum-Head-Change  Column Row Layer    Maximum-Flux-Residual          L2-NORM 
          0                11           1            32   32     2      -0.1311686244E-04      37   37    2        -0.9694904035E-03      0.1577604215E-01
          0                12           1            32   32     2      -0.1849387918E-04      36   32    2        -0.7728386796E-03      0.1409832535E-01
          0                13           1            32   32     2      -0.1116759448E-04      37   37    2        -0.7836575626E-03      0.1279704956E-01
          0                14           1            32   32     2      -0.1483777415E-04      36   32    2        -0.6363275623E-03      0.1146511255E-01
          0                15           1            32   32     2      -0.9359942708E-05      37   37    2        -0.6315998708E-03      0.1041509311E-01

    ------------------------------------------------
       NWT REQUIRED           15 OUTER ITERATIONS 
       AND A TOTAL OF         16 INNER ITERATIONS.
    ------------------------------------------------

 OUTPUT CONTROL FOR STRESS PERIOD    1   TIME STEP  143
    SAVE HEAD FOR ALL LAYERS
 SOLVING FOR ZETA FOR LAYER     1 ZONE     2

     985 UPPER PART EQS.       972 LOWER PART EQS.    BAND WIDTH + 1 =   46
 STRESS PERIOD=  1 TIMESTEP=143 LAYER=  1 ZONE=  2 ACTIVE CELLS= 1957 NUMBER OF EQUATIONS=    1957
 UBUDSV SAVING "      ZETASRF  1" ON UNIT 55 AT TIME STEP143, STRESS PERIOD    1

 HEAD WILL BE SAVED ON UNIT   51 AT END OF TIME STEP  143, STRESS PERIOD    1
 
 SOLVING FOR HEAD 
                                                   Max.-Head-Change                         Max.-Flux-Residual
  Residual-Control   Outer-Iter.   Inner-Iter.     Column Row Layer    Maximum-Head-Change  Column Row Layer    Maximum-Flux-Residual          L2-NORM 
          0                 1           2            30    9     1      -0.1821785687E-02      35   53    1        -0.1232247126E+01      0.1337374605E+02
          0                 2           1            14   14     2       0.7628174044E-04      50   31    1         0.8130944760E-02      0.9605059286E-01
          0                 3           1            17   16     1       0.3682989772E-04      13   15    2         0.3051372975E-02      0.4934556919E-01
          0                 4           1            19   17     2       0.3273066773E-04      50   31    1         0.1816721889E-02      0.3516874716E-01
          0                 5           1            19   21     2       0.1983241062E-04      48   33    1         0.1414669569E-02      0.2800529549E-01
          0                 6           1            22   20     2       0.2360917882E-04      24   25    1         0.1291234466E-02      0.2359201480E-01
          0                 7           1            27   22     1       0.1435200126E-04      24   25    1         0.1279355395E-02      0.2058852644E-01
          0                 8           1            28   24     1       0.2042544628E-04      24   25    1         0.1127287373E-02      0.1820789016E-01
          0                 9           1            30   27     1       0.1282548256E-04      24   25    1         0.1108381388E-02      0.1637930706E-01
          0                10           1            31   28     1       0.1790774069E-04      24   25    1         0.9307043067E-03      0.1463911429E-01
                                                   Max.-Head-Change                         Max.-Flux-Residual
  Residual-Control   Outer-Iter.   Inner-Iter.     Column Row Layer    Maximum-Head-Change  Column Row Layer    Maximum-Flux-Residual          L2-NORM 
          0                11           1            31   30     1       0.1138091010E-04      24   25    1         0.9080913345E-03      0.1326729094E-01
          0                12           1            31   30     1       0.1477593020E-04      24   25    1         0.7570373150E-03      0.1189795427E-01
          0                13           1            31   30     1       0.9793734174E-05      24   25    1         0.7322220777E-03      0.1080218973E-01

    ------------------------------------------------
       NWT REQUIRED           13 OUTER ITERATIONS 
       AND A TOTAL OF         14 INNER ITERATIONS.
    ------------------------------------------------

 OUTPUT CONTROL FOR STRESS PERIOD    1   TIME STEP  144
    SAVE HEAD FOR ALL LAYERS
 SOLVING FOR ZETA FOR LAYER     1 ZONE     2

     945 UPPER PART EQS.       956 LOWER PART EQS.    BAND WIDTH + 1 =   44
 STRESS PERIOD=  1 TIMESTEP=144 LAYER=  1 ZONE=  2 ACTIVE CELLS= 1901 NUMBER OF EQUATIONS=    1901
 UBUDSV SAVING "      ZETASRF  1" ON UNIT 55 AT TIME STEP144, STRESS PERIOD    1

 HEAD WILL BE SAVED ON UNIT   51 AT END OF TIME STEP  144, STRESS PERIOD    1
 
 SOLVING FOR HEAD 
                                                   Max.-Head-Change                         Max.-Flux-Residual
  Residual-Control   Outer-Iter.   Inner-Iter.     Column Row Layer    Maximum-Head-Change  Column Row Layer    Maximum-Flux-Residual          L2-NORM 
          0                 1           2            38    9     1      -0.1872144241E-02      36    9    1        -0.1251558960E+01      0.1286354656E+02
          0                 2           1            48   48     2      -0.9211836333E-04      50   31    1        -0.8510258028E-02      0.1082993647E+00
          0                 3           1            47   46     1      -0.4250695463E-04      41   52    1        -0.4119641104E-02      0.6092339655E-01
          0                 4           1            45   45     2      -0.3809264177E-04      50   31    1        -0.2309997426E-02      0.4370835696E-01
          0                 5           1            40   44     2      -0.2374385624E-04      48   33    1        -0.1836222574E-02      0.3472119997E-01
          0                 6           1            41   41     2      -0.2948733274E-04      48   41    1        -0.1249873490E-02      0.2925105581E-01
          0                 7           1            36   40     2      -0.1746127083E-04      37   33    2        -0.1236149833E-02      0.2557672460E-01
          0                 8           1            37   34     2      -0.2625945959E-04      37   33    2        -0.1158544358E-02      0.2262707208E-01
          0                 9           1            32   35     2      -0.1552653812E-04      27   31    2        -0.1209352046E-02      0.2039224042E-01
          0                10           1            31   33     2      -0.2369699544E-04      27   31    2        -0.1028543259E-02      0.1816605801E-01
                                                   Max.-Head-Change                         Max.-Flux-Residual
  Residual-Control   Outer-Iter.   Inner-Iter.     Column Row Layer    Maximum-Head-Change  Column Row Layer    Maximum-Flux-Residual          L2-NORM 
          0                11           1            32   32     2      -0.1346322964E-04      27   31    2        -0.1082599246E-02      0.1649267961E-01
          0                12           1            32   32     2      -0.1977542654E-04      27   31    2        -0.8868288083E-03      0.1469613284E-01
          0                13           1            32   32     2      -0.1136162024E-04      27   31    2        -0.9051121596E-03      0.1336742373E-01
          0                14           1            31   31     2      -0.1589787116E-04      27   31    2        -0.7386980793E-03      0.1192843946E-01
          0                15           1            32   32     2      -0.9475690677E-05      27   31    2        -0.7399484404E-03      0.1085671856E-01

    ------------------------------------------------
       NWT REQUIRED           15 OUTER ITERATIONS 
       AND A TOTAL OF         16 INNER ITERATIONS.
    ------------------------------------------------

 OUTPUT CONTROL FOR STRESS PERIOD    1   TIME STEP  145
    SAVE HEAD FOR ALL LAYERS
 SOLVING FOR ZETA FOR LAYER     1 ZONE     2

     985 UPPER PART EQS.       972 LOWER PART EQS.    BAND WIDTH + 1 =   46
 STRESS PERIOD=  1 TIMESTEP=145 LAYER=  1 ZONE=  2 ACTIVE CELLS= 1957 NUMBER OF EQUATIONS=    1957
 UBUDSV SAVING "      ZETASRF  1" ON UNIT 55 AT TIME STEP145, STRESS PERIOD    1

 HEAD WILL BE SAVED ON UNIT   51 AT END OF TIME STEP  145, STRESS PERIOD    1
 
 SOLVING FOR HEAD 
                                                   Max.-Head-Change                         Max.-Flux-Residual
  Residual-Control   Outer-Iter.   Inner-Iter.     Column Row Layer    Maximum-Head-Change  Column Row Layer    Maximum-Flux-Residual          L2-NORM 
          0                 1           2            30    9     1      -0.1885804822E-02      35   53    1        -0.1269690832E+01      0.1385012399E+02
          0                 2           1            14   14     2       0.7815488804E-04      50   31    1         0.8451134201E-02      0.9889054083E-01
          0                 3           1            17   16     1       0.3742162876E-04      49   15    2         0.3360816399E-02      0.5079866005E-01
          0                 4           1            19   17     2       0.3332290418E-04      50   31    1         0.1867787437E-02      0.3608943715E-01
          0                 5           1            19   21     2       0.2012298975E-04      48   33    1         0.1459029002E-02      0.2867867276E-01
          0                 6           1            22   20     2       0.2401878478E-04      25   24    1         0.1144877849E-02      0.2410342440E-01
          0                 7           1            27   22     1       0.1452722210E-04      25   24    1         0.1076395022E-02      0.2103905649E-01
          0                 8           1            28   24     1       0.2064806862E-04      25   24    1         0.9814754657E-03      0.1858561744E-01
          0                 9           1            30   27     1       0.1303827814E-04      38   27    1         0.9221254298E-03      0.1674416008E-01
          0                10           1            31   28     1       0.1806104653E-04      38   27    1         0.8103436246E-03      0.1495207728E-01
                                                   Max.-Head-Change                         Max.-Flux-Residual
  Residual-Control   Outer-Iter.   Inner-Iter.     Column Row Layer    Maximum-Head-Change  Column Row Layer    Maximum-Flux-Residual          L2-NORM 
          0                11           1            31   30     1       0.1163339802E-04      38   27    1         0.7870012805E-03      0.1357264745E-01
          0                12           1            31   30     1       0.1488300058E-04      38   27    1         0.6764949777E-03      0.1216418149E-01
          0                13           1            31   30     1       0.1004622240E-04      38   27    1         0.6519624794E-03      0.1105823429E-01
          0                14           1            31   30     1       0.1195311756E-04      38   27    1         0.5561587112E-03      0.9940395642E-02
          0                15           1            31   30     1       0.8518635831E-05      38   27    1         0.5356930449E-03      0.9037872436E-02

    ------------------------------------------------
       NWT REQUIRED           15 OUTER ITERATIONS 
       AND A TOTAL OF         16 INNER ITERATIONS.
    ------------------------------------------------

 OUTPUT CONTROL FOR STRESS PERIOD    1   TIME STEP  146
    SAVE HEAD FOR ALL LAYERS
 SOLVING FOR ZETA FOR LAYER     1 ZONE     2

     945 UPPER PART EQS.       956 LOWER PART EQS.    BAND WIDTH + 1 =   44
 STRESS PERIOD=  1 TIMESTEP=146 LAYER=  1 ZONE=  2 ACTIVE CELLS= 1901 NUMBER OF EQUATIONS=    1901
 UBUDSV SAVING "      ZETASRF  1" ON UNIT 55 AT TIME STEP146, STRESS PERIOD    1

 HEAD WILL BE SAVED ON UNIT   51 AT END OF TIME STEP  146, STRESS PERIOD    1
 
 SOLVING FOR HEAD 
                                                   Max.-Head-Change                         Max.-Flux-Residual
  Residual-Control   Outer-Iter.   Inner-Iter.     Column Row Layer    Maximum-Head-Change  Column Row Layer    Maximum-Flux-Residual          L2-NORM 
          0                 1           2            38    9     1      -0.1930819503E-02      36    9    1        -0.1288354078E+01      0.1335053671E+02
          0                 2           1            48   48     2      -0.9411658170E-04      50   31    1        -0.8814648199E-02      0.1114942114E+00
          0                 3           1            47   46     1      -0.4395944525E-04      41   52    1        -0.4183943689E-02      0.6311174624E-01
          0                 4           1            44   44     2      -0.3960360426E-04      50   31    1        -0.2404190509E-02      0.4589188922E-01
          0                 5           1            40   44     2      -0.2501993725E-04      48   33    1        -0.1938945031E-02      0.3680151580E-01
          0                 6           1            41   41     2      -0.3165039503E-04      48   41    1        -0.1310647054E-02      0.3123439183E-01
          0                 7           1            35   39     2      -0.1869571996E-04      30   32    2        -0.1476324095E-02      0.2737739711E-01
          0                 8           1            37   35     2      -0.2909263350E-04      30   32    2        -0.1371327916E-02      0.2427890311E-01
          0                 9           1            33   32     2      -0.1669647890E-04      30   32    2        -0.1571954378E-02      0.2183812297E-01
          0                10           1            31   32     2      -0.2690516573E-04      30   32    2        -0.1294758633E-02      0.1946396519E-01
                                                   Max.-Head-Change                         Max.-Flux-Residual
  Residual-Control   Outer-Iter.   Inner-Iter.     Column Row Layer    Maximum-Head-Change  Column Row Layer    Maximum-Flux-Residual          L2-NORM 
          0                11           1            32   31     2      -0.1434897072E-04      30   32    2        -0.1401176347E-02      0.1760865389E-01
          0                12           1            31   32     2      -0.2248347282E-04      30   32    2        -0.1105083871E-02      0.1568027454E-01
          0                13           1            32   31     2      -0.1197442706E-04      30   32    2        -0.1162057528E-02      0.1420904706E-01
          0                14           1            31   32     2      -0.1797102970E-04      30   32    2        -0.9121993597E-03      0.1266248713E-01
          0                15           1            32   31     2      -0.9922314910E-05      30   32    2        -0.9402215229E-03      0.1148469652E-01

    ------------------------------------------------
       NWT REQUIRED           15 OUTER ITERATIONS 
       AND A TOTAL OF         16 INNER ITERATIONS.
    ------------------------------------------------

 OUTPUT CONTROL FOR STRESS PERIOD    1   TIME STEP  147
    SAVE HEAD FOR ALL LAYERS
 SOLVING FOR ZETA FOR LAYER     1 ZONE     2

     985 UPPER PART EQS.       972 LOWER PART EQS.    BAND WIDTH + 1 =   46
 STRESS PERIOD=  1 TIMESTEP=147 LAYER=  1 ZONE=  2 ACTIVE CELLS= 1957 NUMBER OF EQUATIONS=    1957
 UBUDSV SAVING "      ZETASRF  1" ON UNIT 55 AT TIME STEP147, STRESS PERIOD    1

 HEAD WILL BE SAVED ON UNIT   51 AT END OF TIME STEP  147, STRESS PERIOD    1
 
 SOLVING FOR HEAD 
                                                   Max.-Head-Change                         Max.-Flux-Residual
  Residual-Control   Outer-Iter.   Inner-Iter.     Column Row Layer    Maximum-Head-Change  Column Row Layer    Maximum-Flux-Residual          L2-NORM 
          0                 1           2            30    9     1      -0.1950201769E-02      35   53    1        -0.1307322701E+01      0.1433120870E+02
          0                 2           1            14   14     2       0.7998823930E-04      50   31    1         0.8767225654E-02      0.1016867205E+00
          0                 3           1            17   16     1       0.3789446745E-04      13   15    2         0.3637944593E-02      0.5199670368E-01
          0                 4           1            19   17     2       0.3384536692E-04      50   31    1         0.1919380342E-02      0.3680952044E-01
          0                 5           1            19   21     2       0.2029718331E-04      48   33    1         0.1500850842E-02      0.2914405442E-01
          0                 6           1            22   20     2       0.2435396590E-04      40   39    1         0.1139714359E-02      0.2441713489E-01
          0                 7           1            27   22     1       0.1456752358E-04      36   23    1         0.1103573600E-02      0.2127269005E-01
          0                 8           1            30   24     1       0.2070219280E-04      36   23    1         0.9302435535E-03      0.1876814245E-01
          0                 9           1            30   27     1       0.1311199199E-04      36   23    1         0.9493281233E-03      0.1690147908E-01
          0                10           1            31   28     1       0.1818403513E-04      35   38    1         0.7723480433E-03      0.1508788343E-01
                                                   Max.-Head-Change                         Max.-Flux-Residual
  Residual-Control   Outer-Iter.   Inner-Iter.     Column Row Layer    Maximum-Head-Change  Column Row Layer    Maximum-Flux-Residual          L2-NORM 
          0                11           1            31   30     1       0.1175669442E-04      36   23    1         0.7718693098E-03      0.1369623816E-01
          0                12           1            31   30     1       0.1497366565E-04      35   38    1         0.6598589920E-03      0.1227588073E-01
          0                13           1            31   30     1       0.1017664331E-04      35   38    1         0.6263967994E-03      0.1116107710E-01
          0                14           1            31   30     1       0.1202628352E-04      35   38    1         0.5518534313E-03      0.1003480749E-01
          0                15           1            31   30     1       0.8637650291E-05      35   38    1         0.5191758590E-03      0.9124968961E-02

    ------------------------------------------------
       NWT REQUIRED           15 OUTER ITERATIONS 
       AND A TOTAL OF         16 INNER ITERATIONS.
    ------------------------------------------------

 OUTPUT CONTROL FOR STRESS PERIOD    1   TIME STEP  148
    SAVE HEAD FOR ALL LAYERS
 SOLVING FOR ZETA FOR LAYER     1 ZONE     2

     945 UPPER PART EQS.       956 LOWER PART EQS.    BAND WIDTH + 1 =   44
 STRESS PERIOD=  1 TIMESTEP=148 LAYER=  1 ZONE=  2 ACTIVE CELLS= 1901 NUMBER OF EQUATIONS=    1901
 UBUDSV SAVING "      ZETASRF  1" ON UNIT 55 AT TIME STEP148, STRESS PERIOD    1

 HEAD WILL BE SAVED ON UNIT   51 AT END OF TIME STEP  148, STRESS PERIOD    1
 
 SOLVING FOR HEAD 
                                                   Max.-Head-Change                         Max.-Flux-Residual
  Residual-Control   Outer-Iter.   Inner-Iter.     Column Row Layer    Maximum-Head-Change  Column Row Layer    Maximum-Flux-Residual          L2-NORM 
          0                 1           2            38    9     1      -0.1989493905E-02      36    9    1        -0.1325363549E+01      0.1384250234E+02
          0                 2           1            48   48     2      -0.9581354680E-04      50   31    1        -0.9095841922E-02      0.1141934559E+00
          0                 3           1            47   46     1      -0.4499016680E-04      41   52    1        -0.4231678762E-02      0.6460527847E-01
          0                 4           1            44   44     2      -0.4054645637E-04      50   31    1        -0.2469923091E-02      0.4716928298E-01
          0                 5           1            40   44     2      -0.2578742433E-04      48   33    1        -0.2004268569E-02      0.3793475194E-01
          0                 6           1            40   40     2      -0.3287865939E-04      48   41    1        -0.1348318431E-02      0.3222878223E-01
          0                 7           1            35   39     2      -0.1935362390E-04      48   33    1        -0.1340148144E-02      0.2816968703E-01
          0                 8           1            37   35     2      -0.3093212956E-04      38   34    2        -0.1028228531E-02      0.2500061364E-01
          0                 9           1            32   34     2      -0.1673559420E-04      42   34    2        -0.1019449593E-02      0.2232778139E-01
          0                10           1            32   32     2      -0.2953851895E-04      31   33    2        -0.8881617422E-03      0.1996090516E-01
                                                   Max.-Head-Change                         Max.-Flux-Residual
  Residual-Control   Outer-Iter.   Inner-Iter.     Column Row Layer    Maximum-Head-Change  Column Row Layer    Maximum-Flux-Residual          L2-NORM 
          0                11           1            32   32     2      -0.1374528799E-04      42   34    2        -0.8509513864E-03      0.1786670529E-01
          0                12           1            31   32     1      -0.2599939937E-04      31   33    2        -0.7458715781E-03      0.1594890780E-01
          0                13           1            32   32     2      -0.1092229800E-04      42   34    2        -0.6989806848E-03      0.1425117210E-01
          0                14           1            31   32     1      -0.2177325397E-04      29   31    2        -0.6064056090E-03      0.1268847962E-01
          0                15           1            32   32     2      -0.8595153925E-05      42   34    2        -0.5645501616E-03      0.1131684183E-01

    ------------------------------------------------
       NWT REQUIRED           15 OUTER ITERATIONS 
       AND A TOTAL OF         16 INNER ITERATIONS.
    ------------------------------------------------

 OUTPUT CONTROL FOR STRESS PERIOD    1   TIME STEP  149
    SAVE HEAD FOR ALL LAYERS
 SOLVING FOR ZETA FOR LAYER     1 ZONE     2

     985 UPPER PART EQS.       972 LOWER PART EQS.    BAND WIDTH + 1 =   46
 STRESS PERIOD=  1 TIMESTEP=149 LAYER=  1 ZONE=  2 ACTIVE CELLS= 1957 NUMBER OF EQUATIONS=    1957
 UBUDSV SAVING "      ZETASRF  1" ON UNIT 55 AT TIME STEP149, STRESS PERIOD    1

 HEAD WILL BE SAVED ON UNIT   51 AT END OF TIME STEP  149, STRESS PERIOD    1
 
 SOLVING FOR HEAD 
                                                   Max.-Head-Change                         Max.-Flux-Residual
  Residual-Control   Outer-Iter.   Inner-Iter.     Column Row Layer    Maximum-Head-Change  Column Row Layer    Maximum-Flux-Residual          L2-NORM 
          0                 1           2            30    9     1      -0.2014841197E-02      35   53    1        -0.1345136817E+01      0.1481664642E+02
          0                 2           1            14   14     2       0.8195361561E-04      50   31    1         0.9091913076E-02      0.1046865331E+00
          0                 3           1            45   15     2       0.3862162269E-04      13   15    2         0.3717302885E-02      0.5353636890E-01
          0                 4           1            19   17     2       0.3459658940E-04      50   31    1         0.1984951869E-02      0.3790880120E-01
          0                 5           1            19   21     2       0.2075930133E-04      48   33    1         0.1558219338E-02      0.2998645168E-01
          0                 6           1            22   20     2       0.2501499377E-04      36   23    1         0.1085229572E-02      0.2510247095E-01
          0                 7           1            24   24     1       0.1488337834E-04      36   23    1         0.1132399551E-02      0.2185850078E-01
          0                 8           1            30   24     1       0.2134946960E-04      36   23    1         0.9534355373E-03      0.1927849761E-01
          0                 9           1            30   27     1       0.1340203162E-04      36   23    1         0.9755549323E-03      0.1735446311E-01
          0                10           1            31   28     1       0.1880845140E-04      35   38    1         0.7954847814E-03      0.1548841449E-01
                                                   Max.-Head-Change                         Max.-Flux-Residual
  Residual-Control   Outer-Iter.   Inner-Iter.     Column Row Layer    Maximum-Head-Change  Column Row Layer    Maximum-Flux-Residual          L2-NORM 
          0                11           1            31   30     1       0.1201439616E-04      36   23    1         0.7935610656E-03      0.1405593972E-01
          0                12           1            31   30     1       0.1549717226E-04      35   38    1         0.6788200520E-03      0.1259445632E-01
          0                13           1            31   30     1       0.1038829222E-04      35   38    1         0.6448074717E-03      0.1144911816E-01
          0                14           1            31   30     1       0.1244111632E-04      35   38    1         0.5671469709E-03      0.1029012006E-01
          0                15           1            31   30     1       0.8810721787E-05      35   38    1         0.5339694834E-03      0.9357108856E-02

    ------------------------------------------------
       NWT REQUIRED           15 OUTER ITERATIONS 
       AND A TOTAL OF         16 INNER ITERATIONS.
    ------------------------------------------------

 OUTPUT CONTROL FOR STRESS PERIOD    1   TIME STEP  150
    SAVE HEAD FOR ALL LAYERS
 SOLVING FOR ZETA FOR LAYER     1 ZONE     2

     945 UPPER PART EQS.       956 LOWER PART EQS.    BAND WIDTH + 1 =   44
 STRESS PERIOD=  1 TIMESTEP=150 LAYER=  1 ZONE=  2 ACTIVE CELLS= 1901 NUMBER OF EQUATIONS=    1901
 UBUDSV SAVING "      ZETASRF  1" ON UNIT 55 AT TIME STEP150, STRESS PERIOD    1

 HEAD WILL BE SAVED ON UNIT   51 AT END OF TIME STEP  150, STRESS PERIOD    1
 
 SOLVING FOR HEAD 
                                                   Max.-Head-Change                         Max.-Flux-Residual
  Residual-Control   Outer-Iter.   Inner-Iter.     Column Row Layer    Maximum-Head-Change  Column Row Layer    Maximum-Flux-Residual          L2-NORM 
          0                 1           2            38    9     1      -0.2048299097E-02      36    9    1        -0.1362522669E+01      0.1433871503E+02
          0                 2           1            48   48     2      -0.9751286681E-04      50   31    1        -0.9375995048E-02      0.1168812572E+00
          0                 3           1            47   46     1      -0.4587151698E-04      41   52    1        -0.4278854144E-02      0.6629894907E-01
          0                 4           1            44   44     2      -0.4154839956E-04      50   31    1        -0.2530308376E-02      0.4850313253E-01
          0                 5           1            40   44     2      -0.2638411925E-04      48   33    1        -0.2068602037E-02      0.3910507215E-01
          0                 6           1            40   40     2      -0.3410876598E-04      48   41    1        -0.1378945997E-02      0.3324213217E-01
          0                 7           1            35   39     2      -0.1987942477E-04      48   33    1        -0.1389464427E-02      0.2908497022E-01
          0                 8           1            37   35     2      -0.3230377839E-04      38   34    2        -0.1062209540E-02      0.2579930537E-01
          0                 9           1            32   33     1      -0.1719426095E-04      42   34    2        -0.1054488085E-02      0.2304608014E-01
          0                10           1            32   32     2      -0.3091210394E-04      31   33    2        -0.9176201658E-03      0.2058174117E-01
                                                   Max.-Head-Change                         Max.-Flux-Residual
  Residual-Control   Outer-Iter.   Inner-Iter.     Column Row Layer    Maximum-Head-Change  Column Row Layer    Maximum-Flux-Residual          L2-NORM 
          0                11           1            32   32     2      -0.1407783376E-04      42   34    2        -0.8799108042E-03      0.1841919834E-01
          0                12           1            31   32     1      -0.2717703563E-04      31   33    2        -0.7686808883E-03      0.1642082345E-01
          0                13           1            32   32     2      -0.1115631083E-04      42   34    2        -0.7219631165E-03      0.1466722948E-01
          0                14           1            31   32     1      -0.2271750370E-04      29   31    2        -0.6236619292E-03      0.1303973287E-01
          0                15           1            32   32     2      -0.8759187316E-05      42   34    2        -0.5820018168E-03      0.1162428954E-01

    ------------------------------------------------
       NWT REQUIRED           15 OUTER ITERATIONS 
       AND A TOTAL OF         16 INNER ITERATIONS.
    ------------------------------------------------

 OUTPUT CONTROL FOR STRESS PERIOD    1   TIME STEP  151
    SAVE HEAD FOR ALL LAYERS
 SOLVING FOR ZETA FOR LAYER     1 ZONE     2

     985 UPPER PART EQS.       972 LOWER PART EQS.    BAND WIDTH + 1 =   46
 STRESS PERIOD=  1 TIMESTEP=151 LAYER=  1 ZONE=  2 ACTIVE CELLS= 1957 NUMBER OF EQUATIONS=    1957
 UBUDSV SAVING "      ZETASRF  1" ON UNIT 55 AT TIME STEP151, STRESS PERIOD    1

 HEAD WILL BE SAVED ON UNIT   51 AT END OF TIME STEP  151, STRESS PERIOD    1
 
 SOLVING FOR HEAD 
                                                   Max.-Head-Change                         Max.-Flux-Residual
  Residual-Control   Outer-Iter.   Inner-Iter.     Column Row Layer    Maximum-Head-Change  Column Row Layer    Maximum-Flux-Residual          L2-NORM 
          0                 1           2            30    9     1      -0.2079783726E-02      35   53    1        -0.1383093990E+01      0.1530560356E+02
          0                 2           1            14   14     2       0.8387639655E-04      50   31    1         0.9411436408E-02      0.1076234987E+00
          0                 3           1            45   15     2       0.3940540598E-04      13   15    2         0.3793592767E-02      0.5487671058E-01
          0                 4           1            19   17     2       0.3523519065E-04      50   31    1         0.2044146476E-02      0.3884123738E-01
          0                 5           1            19   21     2       0.2109909414E-04      48   33    1         0.1608051037E-02      0.3064495787E-01
          0                 6           1            21   19     2       0.2552322324E-04      21   19    2         0.1074562936E-02      0.2562501440E-01
          0                 7           1            24   24     1       0.1508834829E-04      48   33    1         0.1135571648E-02      0.2227105167E-01
          0                 8           1            30   24     1       0.2173772326E-04      38   39    1         0.8902838647E-03      0.1963985727E-01
          0                 9           1            30   27     1       0.1361826396E-04      48   33    1         0.8812390114E-03      0.1765796832E-01
          0                10           1            31   28     1       0.1913116088E-04      32   25    1         0.7704991027E-03      0.1576831593E-01
                                                   Max.-Head-Change                         Max.-Flux-Residual
  Residual-Control   Outer-Iter.   Inner-Iter.     Column Row Layer    Maximum-Head-Change  Column Row Layer    Maximum-Flux-Residual          L2-NORM 
          0                11           1            31   30     1       0.1225377086E-04      48   33    1         0.7062111496E-03      0.1429680930E-01
          0                12           1            31   30     1       0.1573750430E-04      37   32    1         0.6545797272E-03      0.1282140480E-01
          0                13           1            31   30     1       0.1062007945E-04      37   32    1         0.5822565939E-03      0.1164678533E-01
          0                14           1            31   30     1       0.1261760592E-04      37   32    1         0.5490155270E-03      0.1047754243E-01
          0                15           1            31   30     1       0.9023031282E-05      37   32    1         0.4802142906E-03      0.9521460202E-02

    ------------------------------------------------
       NWT REQUIRED           15 OUTER ITERATIONS 
       AND A TOTAL OF         16 INNER ITERATIONS.
    ------------------------------------------------

 OUTPUT CONTROL FOR STRESS PERIOD    1   TIME STEP  152
    SAVE HEAD FOR ALL LAYERS
 SOLVING FOR ZETA FOR LAYER     1 ZONE     2

     945 UPPER PART EQS.       956 LOWER PART EQS.    BAND WIDTH + 1 =   44
 STRESS PERIOD=  1 TIMESTEP=152 LAYER=  1 ZONE=  2 ACTIVE CELLS= 1901 NUMBER OF EQUATIONS=    1901
 UBUDSV SAVING "      ZETASRF  1" ON UNIT 55 AT TIME STEP152, STRESS PERIOD    1

 HEAD WILL BE SAVED ON UNIT   51 AT END OF TIME STEP  152, STRESS PERIOD    1
 
 SOLVING FOR HEAD 
                                                   Max.-Head-Change                         Max.-Flux-Residual
  Residual-Control   Outer-Iter.   Inner-Iter.     Column Row Layer    Maximum-Head-Change  Column Row Layer    Maximum-Flux-Residual          L2-NORM 
          0                 1           2            38    9     1      -0.2107208590E-02      36    9    1        -0.1399796848E+01      0.1483848623E+02
          0                 2           1            48   48     2      -0.9924809309E-04      50   31    1        -0.9657573373E-02      0.1196101834E+00
          0                 3           1            47   46     1      -0.4678904196E-04      48   33    1        -0.4404035322E-02      0.6791949256E-01
          0                 4           1            44   44     2      -0.4240810104E-04      50   31    1        -0.2594219661E-02      0.4980229770E-01
          0                 5           1            40   44     2      -0.2710942386E-04      48   33    1        -0.2130785848E-02      0.4026135334E-01
          0                 6           1            40   40     2      -0.3505789660E-04      48   41    1        -0.1414148613E-02      0.3426692819E-01
          0                 7           1            35   39     2      -0.2056518352E-04      48   33    1        -0.1435384986E-02      0.3001090076E-01
          0                 8           1            37   35     2      -0.3323394585E-04      38   34    2        -0.1097741491E-02      0.2663144476E-01
          0                 9           1            32   33     1      -0.1784244292E-04      42   34    2        -0.1088782599E-02      0.2379660495E-01
          0                10           1            32   32     2      -0.3171476781E-04      31   33    2        -0.9486927220E-03      0.2126110795E-01
                                                   Max.-Head-Change                         Max.-Flux-Residual
  Residual-Control   Outer-Iter.   Inner-Iter.     Column Row Layer    Maximum-Head-Change  Column Row Layer    Maximum-Flux-Residual          L2-NORM 
          0                11           1            32   32     2      -0.1463247448E-04      42   34    2        -0.9085372926E-03      0.1903199169E-01
          0                12           1            31   32     1      -0.2779508185E-04      31   33    2        -0.7948652860E-03      0.1697951125E-01
          0                13           1            32   32     2      -0.1162522567E-04      42   34    2        -0.7457182095E-03      0.1517247407E-01
          0                14           1            31   32     1      -0.2319038160E-04      29   31    2        -0.6459321180E-03      0.1350348267E-01
          0                15           1            32   32     2      -0.9155878969E-05      42   34    2        -0.6017520852E-03      0.1204506373E-01

    ------------------------------------------------
       NWT REQUIRED           15 OUTER ITERATIONS 
       AND A TOTAL OF         16 INNER ITERATIONS.
    ------------------------------------------------

 OUTPUT CONTROL FOR STRESS PERIOD    1   TIME STEP  153
    SAVE HEAD FOR ALL LAYERS
 SOLVING FOR ZETA FOR LAYER     1 ZONE     2

     985 UPPER PART EQS.       972 LOWER PART EQS.    BAND WIDTH + 1 =   46
 STRESS PERIOD=  1 TIMESTEP=153 LAYER=  1 ZONE=  2 ACTIVE CELLS= 1957 NUMBER OF EQUATIONS=    1957
 UBUDSV SAVING "      ZETASRF  1" ON UNIT 55 AT TIME STEP153, STRESS PERIOD    1

 HEAD WILL BE SAVED ON UNIT   51 AT END OF TIME STEP  153, STRESS PERIOD    1
 
 SOLVING FOR HEAD 
                                                   Max.-Head-Change                         Max.-Flux-Residual
  Residual-Control   Outer-Iter.   Inner-Iter.     Column Row Layer    Maximum-Head-Change  Column Row Layer    Maximum-Flux-Residual          L2-NORM 
          0                 1           2            30    9     1      -0.2144961434E-02      35   53    1        -0.1421175414E+01      0.1579758276E+02
          0                 2           1            14   14     2       0.8578456885E-04      50   31    1         0.9728370148E-02      0.1105445259E+00
          0                 3           1            45   15     2       0.4022990532E-04      14   14    2         0.3449991545E-02      0.5622565900E-01
          0                 4           1            19   17     2       0.3571602753E-04      50   31    1         0.2103595747E-02      0.3975715227E-01
          0                 5           1            19   21     2       0.2143676256E-04      48   33    1         0.1652572975E-02      0.3138263527E-01
          0                 6           1            21   19     2       0.2586187941E-04      38   23    1         0.1226869275E-02      0.2623517632E-01
          0                 7           1            27   22     1       0.1530463113E-04      24   23    1         0.1211326253E-02      0.2288574289E-01
          0                 8           1            32   24     1       0.2205928720E-04      33   24    1         0.1068412445E-02      0.2013507614E-01
          0                 9           1            30   27     1       0.1383739826E-04      31   24    1         0.1089124621E-02      0.1820402175E-01
          0                10           1            31   28     1       0.1931213859E-04      33   24    1         0.9331469148E-03      0.1618698152E-01
                                                   Max.-Head-Change                         Max.-Flux-Residual
  Residual-Control   Outer-Iter.   Inner-Iter.     Column Row Layer    Maximum-Head-Change  Column Row Layer    Maximum-Flux-Residual          L2-NORM 
          0                11           1            31   30     1       0.1249147542E-04      31   24    1         0.9175648688E-03      0.1475305796E-01
          0                12           1            31   30     1       0.1590688599E-04      33   24    1         0.7774236783E-03      0.1317486360E-01
          0                13           1            31   30     1       0.1084367960E-04      31   24    1         0.7443326005E-03      0.1201723704E-01
          0                14           1            31   30     1       0.1276451220E-04      33   24    1         0.6390801411E-03      0.1077429518E-01
          0                15           1            31   30     1       0.9222450699E-05      31   24    1         0.6002651273E-03      0.9821576734E-02

    ------------------------------------------------
       NWT REQUIRED           15 OUTER ITERATIONS 
       AND A TOTAL OF         16 INNER ITERATIONS.
    ------------------------------------------------

 OUTPUT CONTROL FOR STRESS PERIOD    1   TIME STEP  154
    SAVE HEAD FOR ALL LAYERS
 SOLVING FOR ZETA FOR LAYER     1 ZONE     2

     945 UPPER PART EQS.       956 LOWER PART EQS.    BAND WIDTH + 1 =   44
 STRESS PERIOD=  1 TIMESTEP=154 LAYER=  1 ZONE=  2 ACTIVE CELLS= 1901 NUMBER OF EQUATIONS=    1901
 UBUDSV SAVING "      ZETASRF  1" ON UNIT 55 AT TIME STEP154, STRESS PERIOD    1

 HEAD WILL BE SAVED ON UNIT   51 AT END OF TIME STEP  154, STRESS PERIOD    1
 
 SOLVING FOR HEAD 
                                                   Max.-Head-Change                         Max.-Flux-Residual
  Residual-Control   Outer-Iter.   Inner-Iter.     Column Row Layer    Maximum-Head-Change  Column Row Layer    Maximum-Flux-Residual          L2-NORM 
          0                 1           2            38    9     1      -0.2166191363E-02      36    9    1        -0.1437173850E+01      0.1534122347E+02
          0                 2           1            48   48     2      -0.1010074034E-03      50   31    1        -0.9940075482E-02      0.1223641371E+00
          0                 3           1            47   46     1      -0.4773599792E-04      48   33    1        -0.4533252660E-02      0.6959054173E-01
          0                 4           1            44   44     2      -0.4317148800E-04      50   31    1        -0.2662017757E-02      0.5116245945E-01
          0                 5           1            40   44     2      -0.2790678390E-04      48   33    1        -0.2151836714E-02      0.4142621402E-01
          0                 6           1            40   40     2      -0.3583123784E-04      48   41    1        -0.1451534318E-02      0.3530770542E-01
          0                 7           1            35   39     2      -0.2133258570E-04      48   33    1        -0.1431701570E-02      0.3093803320E-01
          0                 8           1            37   35     2      -0.3391606436E-04      38   34    2        -0.1133630332E-02      0.2747858263E-01
          0                 9           1            32   33     1      -0.1858263033E-04      42   34    2        -0.1123097956E-02      0.2455750459E-01
          0                10           1            32   32     2      -0.3223358375E-04      31   33    2        -0.9800896594E-03      0.2196567536E-01
                                                   Max.-Head-Change                         Max.-Flux-Residual
  Residual-Control   Outer-Iter.   Inner-Iter.     Column Row Layer    Maximum-Head-Change  Column Row Layer    Maximum-Flux-Residual          L2-NORM 
          0                11           1            32   32     2      -0.1528994869E-04      42   34    2        -0.9377109027E-03      0.1966921751E-01
          0                12           1            31   32     1      -0.2817150526E-04      29   31    2        -0.8224516091E-03      0.1757568065E-01
          0                13           1            32   32     2      -0.1219453984E-04      42   34    2        -0.7706176325E-03      0.1571551622E-01
          0                14           1            31   32     1      -0.2349823789E-04      29   31    2        -0.6702512981E-03      0.1401448309E-01
          0                15           1            32   32     2      -0.9642468923E-05      42   34    2        -0.6231774597E-03      0.1251260836E-01

    ------------------------------------------------
       NWT REQUIRED           15 OUTER ITERATIONS 
       AND A TOTAL OF         16 INNER ITERATIONS.
    ------------------------------------------------

 OUTPUT CONTROL FOR STRESS PERIOD    1   TIME STEP  155
    SAVE HEAD FOR ALL LAYERS
 SOLVING FOR ZETA FOR LAYER     1 ZONE     2

     985 UPPER PART EQS.       972 LOWER PART EQS.    BAND WIDTH + 1 =   46
 STRESS PERIOD=  1 TIMESTEP=155 LAYER=  1 ZONE=  2 ACTIVE CELLS= 1957 NUMBER OF EQUATIONS=    1957
 UBUDSV SAVING "      ZETASRF  1" ON UNIT 55 AT TIME STEP155, STRESS PERIOD    1

 HEAD WILL BE SAVED ON UNIT   51 AT END OF TIME STEP  155, STRESS PERIOD    1
 
 SOLVING FOR HEAD 
                                                   Max.-Head-Change                         Max.-Flux-Residual
  Residual-Control   Outer-Iter.   Inner-Iter.     Column Row Layer    Maximum-Head-Change  Column Row Layer    Maximum-Flux-Residual          L2-NORM 
          0                 1           2            30    9     1      -0.2210344145E-02      35   53    1        -0.1459358033E+01      0.1629210896E+02
          0                 2           1            15   13     2       0.8905456024E-04      50   31    1         0.1004369642E-01      0.1134682364E+00
          0                 3           1            45   15     2       0.4090246035E-04      14   14    2         0.3511089361E-02      0.5770860783E-01
          0                 4           1            19   17     2       0.3632920301E-04      50   31    1         0.2158898520E-02      0.4068158951E-01
          0                 5           1            19   21     2       0.2169600223E-04      48   33    1         0.1699504714E-02      0.3203090108E-01
          0                 6           1            21   19     2       0.2639122067E-04      38   23    1         0.1240256081E-02      0.2669199488E-01
          0                 7           1            26   21     1       0.1540568019E-04      24   23    1         0.1228235228E-02      0.2322320282E-01
          0                 8           1            29   23     1       0.2232670089E-04      38   23    1         0.1045061599E-02      0.2040448720E-01
          0                 9           1            30   27     1       0.1392176879E-04      24   23    1         0.1020446871E-02      0.1840197107E-01
          0                10           1            31   28     1       0.1972868682E-04      38   23    1         0.8501388016E-03      0.1637070193E-01
                                                   Max.-Head-Change                         Max.-Flux-Residual
  Residual-Control   Outer-Iter.   Inner-Iter.     Column Row Layer    Maximum-Head-Change  Column Row Layer    Maximum-Flux-Residual          L2-NORM 
          0                11           1            31   30     1       0.1257688149E-04      24   23    1         0.8146197177E-03      0.1488863597E-01
          0                12           1            31   30     1       0.1624547447E-04      38   23    1         0.6903224382E-03      0.1331033959E-01
          0                13           1            31   30     1       0.1091886565E-04      24   23    1         0.6466474398E-03      0.1212046939E-01
          0                14           1            31   30     1       0.1302028542E-04      38   23    1         0.5629875329E-03      0.1087865764E-01
          0                15           1            31   30     1       0.9288939874E-05      24   23    1         0.5168095457E-03      0.9904001237E-02

    ------------------------------------------------
       NWT REQUIRED           15 OUTER ITERATIONS 
       AND A TOTAL OF         16 INNER ITERATIONS.
    ------------------------------------------------

 OUTPUT CONTROL FOR STRESS PERIOD    1   TIME STEP  156
    SAVE HEAD FOR ALL LAYERS
 SOLVING FOR ZETA FOR LAYER     1 ZONE     2

     945 UPPER PART EQS.       956 LOWER PART EQS.    BAND WIDTH + 1 =   44
 STRESS PERIOD=  1 TIMESTEP=156 LAYER=  1 ZONE=  2 ACTIVE CELLS= 1901 NUMBER OF EQUATIONS=    1901
 UBUDSV SAVING "      ZETASRF  1" ON UNIT 55 AT TIME STEP156, STRESS PERIOD    1

 HEAD WILL BE SAVED ON UNIT   51 AT END OF TIME STEP  156, STRESS PERIOD    1
 
 SOLVING FOR HEAD 
                                                   Max.-Head-Change                         Max.-Flux-Residual
  Residual-Control   Outer-Iter.   Inner-Iter.     Column Row Layer    Maximum-Head-Change  Column Row Layer    Maximum-Flux-Residual          L2-NORM 
          0                 1           2            38    9     1      -0.2225878335E-02      36    9    1        -0.1474625008E+01      0.1556166607E+02
          0                 2           1            48   48     2      -0.1175002779E-03      50   31    1        -0.1039424331E-01      0.1337815714E+00
          0                 3           1            47   46     1      -0.5431915569E-04      47   46    1        -0.5132747958E-02      0.7648639792E-01
          0                 4           1            44   44     2      -0.4883424518E-04      50   31    1        -0.2813670780E-02      0.5644250790E-01
          0                 5           1            40   44     2      -0.3071890757E-04      48   33    1        -0.2327048736E-02      0.4567978558E-01
          0                 6           1            40   40     2      -0.3907496626E-04      48   41    1        -0.1599945017E-02      0.3890619373E-01
          0                 7           1            35   39     2      -0.2348379788E-04      48   33    1        -0.1543408370E-02      0.3407926970E-01
          0                 8           1            37   35     2      -0.3671637771E-04      38   34    2        -0.1242045610E-02      0.3027694113E-01
          0                 9           1            32   33     1      -0.2063571406E-04      42   34    2        -0.1230759067E-02      0.2706762343E-01
          0                10           1            32   32     2      -0.3478136415E-04      31   33    2        -0.1078246641E-02      0.2423246027E-01
                                                   Max.-Head-Change                         Max.-Flux-Residual
  Residual-Control   Outer-Iter.   Inner-Iter.     Column Row Layer    Maximum-Head-Change  Column Row Layer    Maximum-Flux-Residual          L2-NORM 
          0                11           1            32   32     2      -0.1709499607E-04      42   34    2        -0.1028969569E-02      0.2171718631E-01
          0                12           1            31   32     1      -0.3031759637E-04      29   31    2        -0.9083360803E-03      0.1943333732E-01
          0                13           1            32   32     2      -0.1370984574E-04      42   34    2        -0.8477757859E-03      0.1739850458E-01
          0                14           1            31   32     1      -0.2528129155E-04      29   31    2        -0.7428683083E-03      0.1554443062E-01
          0                15           1            32   32     2      -0.1089733898E-04      42   34    2        -0.6883430860E-03      0.1390070194E-01
          0                16           1            31   32     1      -0.2057458151E-04      29   31    2        -0.5991056842E-03      0.1240387837E-01
          0                17           1            32   32     2      -0.8665252709E-05      42   34    2        -0.5514571880E-03      0.1108355243E-01

    ------------------------------------------------
       NWT REQUIRED           17 OUTER ITERATIONS 
       AND A TOTAL OF         18 INNER ITERATIONS.
    ------------------------------------------------

 OUTPUT CONTROL FOR STRESS PERIOD    1   TIME STEP  157
    SAVE HEAD FOR ALL LAYERS
 SOLVING FOR ZETA FOR LAYER     1 ZONE     2

     985 UPPER PART EQS.       980 LOWER PART EQS.    BAND WIDTH + 1 =   46
 STRESS PERIOD=  1 TIMESTEP=157 LAYER=  1 ZONE=  2 ACTIVE CELLS= 1965 NUMBER OF EQUATIONS=    1965
 UBUDSV SAVING "      ZETASRF  1" ON UNIT 55 AT TIME STEP157, STRESS PERIOD    1

 HEAD WILL BE SAVED ON UNIT   51 AT END OF TIME STEP  157, STRESS PERIOD    1
 
 SOLVING FOR HEAD 
                                                   Max.-Head-Change                         Max.-Flux-Residual
  Residual-Control   Outer-Iter.   Inner-Iter.     Column Row Layer    Maximum-Head-Change  Column Row Layer    Maximum-Flux-Residual          L2-NORM 
          0                 1           2            30    9     1      -0.2276843512E-02      35   53    1        -0.1497771742E+01      0.1593699325E+02
          0                 2           1            14   14     2       0.1018003757E-03      50   31    1         0.1038116611E-01      0.1218507833E+00
          0                 3           1            47   16     1       0.4358084607E-04      48   16    2         0.4057790759E-02      0.5966002758E-01
          0                 4           1            45   17     2       0.3678308254E-04      50   31    1         0.2120187717E-02      0.4059246613E-01
          0                 5           1            17   19     2       0.2098366859E-04      48   33    1         0.1669738631E-02      0.3135688954E-01
          0                 6           1            21   19     2       0.2485151757E-04      38   21    1         0.1228642630E-02      0.2567348170E-01
          0                 7           1            24   22     1       0.1494906544E-04      48   33    1         0.1138513631E-02      0.2219322501E-01
          0                 8           1            27   23     1       0.2001335013E-04      26   23    1         0.1012236390E-02      0.1936615476E-01
          0                 9           1            30   27     1       0.1348642816E-04      26   23    1         0.9411576801E-03      0.1744556225E-01
          0                10           1            31   28     1       0.1739777568E-04      24   29    1         0.8362695399E-03      0.1552347075E-01
                                                   Max.-Head-Change                         Max.-Flux-Residual
  Residual-Control   Outer-Iter.   Inner-Iter.     Column Row Layer    Maximum-Head-Change  Column Row Layer    Maximum-Flux-Residual          L2-NORM 
          0                11           1            31   30     1       0.1239471207E-04      24   29    1         0.7859875268E-03      0.1411427104E-01
          0                12           1            31   30     1       0.1442870440E-04      24   29    1         0.7092739533E-03      0.1265408994E-01
          0                13           1            31   30     1       0.1087593029E-04      24   29    1         0.6554766297E-03      0.1151747282E-01
          0                14           1            31   30     1       0.1166249080E-04      24   29    1         0.5893208362E-03      0.1037039566E-01
          0                15           1            31   30     1       0.9304567508E-05      24   29    1         0.5404638129E-03      0.9434177471E-02

    ------------------------------------------------
       NWT REQUIRED           15 OUTER ITERATIONS 
       AND A TOTAL OF         16 INNER ITERATIONS.
    ------------------------------------------------

 OUTPUT CONTROL FOR STRESS PERIOD    1   TIME STEP  158
    SAVE HEAD FOR ALL LAYERS
 SOLVING FOR ZETA FOR LAYER     1 ZONE     2

     945 UPPER PART EQS.       956 LOWER PART EQS.    BAND WIDTH + 1 =   44
 STRESS PERIOD=  1 TIMESTEP=158 LAYER=  1 ZONE=  2 ACTIVE CELLS= 1901 NUMBER OF EQUATIONS=    1901
 UBUDSV SAVING "      ZETASRF  1" ON UNIT 55 AT TIME STEP158, STRESS PERIOD    1

 HEAD WILL BE SAVED ON UNIT   51 AT END OF TIME STEP  158, STRESS PERIOD    1
 
 SOLVING FOR HEAD 
                                                   Max.-Head-Change                         Max.-Flux-Residual
  Residual-Control   Outer-Iter.   Inner-Iter.     Column Row Layer    Maximum-Head-Change  Column Row Layer    Maximum-Flux-Residual          L2-NORM 
          0                 1           2            38    9     1      -0.2266786112E-02      36    9    1        -0.1512331162E+01      0.1603470168E+02
          0                 2           1            12   48     2      -0.9119586409E-04      50   31    1        -0.1035044948E-01      0.1196775202E+00
          0                 3           1            48   48     2      -0.3827188030E-04      48   33    1        -0.4116660673E-02      0.5541584435E-01
          0                 4           1            46   32     2      -0.2920701018E-04      50   31    1        -0.2099363425E-02      0.3697730344E-01
          0                 5           1            44   41     1      -0.1960420001E-04      48   33    1        -0.1496258918E-02      0.2920779442E-01
          0                 6           1            41   41     2      -0.2210587044E-04      40   44    2        -0.1199658024E-02      0.2459600853E-01
          0                 7           1            36   40     2      -0.1589447611E-04      22   42    2        -0.1098490654E-02      0.2162583100E-01
          0                 8           1            37   35     2      -0.1886246937E-04      39   37    2        -0.1042673145E-02      0.1903578511E-01
          0                 9           1            33   35     2      -0.1450222202E-04      38   38    2        -0.9215272332E-03      0.1717365010E-01
          0                10           1            32   33     1      -0.1644628674E-04      39   37    2        -0.8633091710E-03      0.1534140560E-01
                                                   Max.-Head-Change                         Max.-Flux-Residual
  Residual-Control   Outer-Iter.   Inner-Iter.     Column Row Layer    Maximum-Head-Change  Column Row Layer    Maximum-Flux-Residual          L2-NORM 
          0                11           1            32   32     2      -0.1281174381E-04      38   38    2        -0.7535170564E-03      0.1391913286E-01
          0                12           1            31   32     1      -0.1384979258E-04      39   37    2        -0.7042124221E-03      0.1250451619E-01
          0                13           1            32   32     2      -0.1091993435E-04      38   38    2        -0.6121741555E-03      0.1135814137E-01
          0                14           1            31   32     1      -0.1140575569E-04      39   37    2        -0.5729268067E-03      0.1023075879E-01
          0                15           1            32   32     2      -0.9141458451E-05      38   38    2        -0.4974571686E-03      0.9294519418E-02

    ------------------------------------------------
       NWT REQUIRED           15 OUTER ITERATIONS 
       AND A TOTAL OF         16 INNER ITERATIONS.
    ------------------------------------------------

 OUTPUT CONTROL FOR STRESS PERIOD    1   TIME STEP  159
    SAVE HEAD FOR ALL LAYERS
 SOLVING FOR ZETA FOR LAYER     1 ZONE     2

     985 UPPER PART EQS.       972 LOWER PART EQS.    BAND WIDTH + 1 =   46
 STRESS PERIOD=  1 TIMESTEP=159 LAYER=  1 ZONE=  2 ACTIVE CELLS= 1957 NUMBER OF EQUATIONS=    1957
 UBUDSV SAVING "      ZETASRF  1" ON UNIT 55 AT TIME STEP159, STRESS PERIOD    1

 HEAD WILL BE SAVED ON UNIT   51 AT END OF TIME STEP  159, STRESS PERIOD    1
 
 SOLVING FOR HEAD 
                                                   Max.-Head-Change                         Max.-Flux-Residual
  Residual-Control   Outer-Iter.   Inner-Iter.     Column Row Layer    Maximum-Head-Change  Column Row Layer    Maximum-Flux-Residual          L2-NORM 
          0                 1           2            30    9     1      -0.2344323043E-02      35   53    1        -0.1535469632E+01      0.1575029442E+02
          0                 2           1            46   32     2       0.6335304465E-04      50   31    1         0.1026611000E-01      0.1012669381E+00
          0                 3           1            14   30     2       0.2014762670E-04      48   33    1         0.2827071676E-02      0.3218583233E-01
          0                 4           1            44   43     1      -0.1172041659E-04      50   31    1         0.1085195103E-02      0.1300976968E-01
          0                 5           1            42   42     2      -0.5811288423E-05      48   41    1        -0.5149337299E-03      0.6557866837E-02

    ------------------------------------------------
       NWT REQUIRED            5 OUTER ITERATIONS 
       AND A TOTAL OF          6 INNER ITERATIONS.
    ------------------------------------------------

 OUTPUT CONTROL FOR STRESS PERIOD    1   TIME STEP  160
    SAVE HEAD FOR ALL LAYERS
 SOLVING FOR ZETA FOR LAYER     1 ZONE     2

     953 UPPER PART EQS.       964 LOWER PART EQS.    BAND WIDTH + 1 =   44
 STRESS PERIOD=  1 TIMESTEP=160 LAYER=  1 ZONE=  2 ACTIVE CELLS= 1917 NUMBER OF EQUATIONS=    1917
 UBUDSV SAVING "      ZETASRF  1" ON UNIT 55 AT TIME STEP160, STRESS PERIOD    1

 HEAD WILL BE SAVED ON UNIT   51 AT END OF TIME STEP  160, STRESS PERIOD    1
 
 SOLVING FOR HEAD 
                                                   Max.-Head-Change                         Max.-Flux-Residual
  Residual-Control   Outer-Iter.   Inner-Iter.     Column Row Layer    Maximum-Head-Change  Column Row Layer    Maximum-Flux-Residual          L2-NORM 
          0                 1           2             9   24     1      -0.2301328503E-02      36    9    1        -0.1550501894E+01      0.1682608606E+02
          0                 2           1            17   19     2       0.8767184122E-04      50   31    1        -0.1050940074E-01      0.1251770176E+00
          0                 3           1            18   18     2       0.4324735956E-04      48   33    1        -0.3863589501E-02      0.5174996765E-01
          0                 4           1            18   18     2       0.2960882616E-04      17   19    2         0.1909503815E-02      0.2703250613E-01
          0                 5           1            19   17     2       0.1481509989E-04      14   19    1         0.1103187459E-02      0.1611124731E-01
          0                 6           1            18   18     2       0.1229348861E-04      17   19    2         0.6952491622E-03      0.1076984380E-01
          0                 7           1            20   18     2       0.6981612244E-05      48   25    1         0.5067338113E-03      0.7873380024E-02

    ------------------------------------------------
       NWT REQUIRED            7 OUTER ITERATIONS 
       AND A TOTAL OF          8 INNER ITERATIONS.
    ------------------------------------------------

 OUTPUT CONTROL FOR STRESS PERIOD    1   TIME STEP  161
    SAVE HEAD FOR ALL LAYERS
 SOLVING FOR ZETA FOR LAYER     1 ZONE     2

     977 UPPER PART EQS.       964 LOWER PART EQS.    BAND WIDTH + 1 =   46
 STRESS PERIOD=  1 TIMESTEP=161 LAYER=  1 ZONE=  2 ACTIVE CELLS= 1941 NUMBER OF EQUATIONS=    1941
 UBUDSV SAVING "      ZETASRF  1" ON UNIT 55 AT TIME STEP161, STRESS PERIOD    1

 HEAD WILL BE SAVED ON UNIT   51 AT END OF TIME STEP  161, STRESS PERIOD    1
 
 SOLVING FOR HEAD 
                                                   Max.-Head-Change                         Max.-Flux-Residual
  Residual-Control   Outer-Iter.   Inner-Iter.     Column Row Layer    Maximum-Head-Change  Column Row Layer    Maximum-Flux-Residual          L2-NORM 
          0                 1           2            30    9     1      -0.2409217898E-02      35    9    1        -0.1573079306E+01      0.1602627504E+02
          0                 2           1            45   43     2      -0.1380049946E-03      50   31    1         0.1060293951E-01      0.1494301384E+00
          0                 3           1            47   44     1      -0.6966531299E-04      47   42    1        -0.5716323472E-02      0.7758043807E-01
          0                 4           1            45   45     2      -0.5630566627E-04      45   43    2        -0.3199676004E-02      0.5107653603E-01
          0                 5           1            42   44     2      -0.3029895862E-04      47   42    1        -0.2209646381E-02      0.3768368659E-01
          0                 6           1            45   43     2      -0.2909938317E-04      46   42    2        -0.1516788360E-02      0.3047829414E-01
          0                 7           1            41   41     2      -0.1985961341E-04      48   41    1        -0.1280022584E-02      0.2608854937E-01
          0                 8           1            36   40     2      -0.2129503301E-04      28   40    2        -0.1181488008E-02      0.2287300091E-01
          0                 9           1            37   35     2      -0.1696267509E-04      38   31    1        -0.1153021609E-02      0.2053789230E-01
          0                10           1            33   35     2      -0.1867195968E-04      38   31    1        -0.1091650483E-02      0.1839253187E-01
                                                   Max.-Head-Change                         Max.-Flux-Residual
  Residual-Control   Outer-Iter.   Inner-Iter.     Column Row Layer    Maximum-Head-Change  Column Row Layer    Maximum-Flux-Residual          L2-NORM 
          0                11           1            31   34     1      -0.1548427866E-04      38   31    1        -0.1018190924E-02      0.1667646862E-01
          0                12           1            32   32     2      -0.1599369631E-04      38   31    1        -0.9435549625E-03      0.1502272017E-01
          0                13           1            31   32     1      -0.1340686882E-04      38   31    1        -0.8591869463E-03      0.1363592040E-01
          0                14           1            32   32     2      -0.1331025508E-04      38   31    1        -0.7906250629E-03      0.1231226989E-01
          0                15           1            31   32     1      -0.1128075513E-04      38   31    1        -0.7120976073E-03      0.1117424310E-01
          0                16           1            32   32     2      -0.1094241497E-04      38   31    1        -0.6545291039E-03      0.1010217869E-01
          0                17           1            31   32     1      -0.9382297756E-05      38   31    1        -0.5861471431E-03      0.9166614954E-02

    ------------------------------------------------
       NWT REQUIRED           17 OUTER ITERATIONS 
       AND A TOTAL OF         18 INNER ITERATIONS.
    ------------------------------------------------

 OUTPUT CONTROL FOR STRESS PERIOD    1   TIME STEP  162
    SAVE HEAD FOR ALL LAYERS
 SOLVING FOR ZETA FOR LAYER     1 ZONE     2

     961 UPPER PART EQS.       972 LOWER PART EQS.    BAND WIDTH + 1 =   44
 STRESS PERIOD=  1 TIMESTEP=162 LAYER=  1 ZONE=  2 ACTIVE CELLS= 1933 NUMBER OF EQUATIONS=    1933
 UBUDSV SAVING "      ZETASRF  1" ON UNIT 55 AT TIME STEP162, STRESS PERIOD    1

 HEAD WILL BE SAVED ON UNIT   51 AT END OF TIME STEP  162, STRESS PERIOD    1
 
 SOLVING FOR HEAD 
                                                   Max.-Head-Change                         Max.-Flux-Residual
  Residual-Control   Outer-Iter.   Inner-Iter.     Column Row Layer    Maximum-Head-Change  Column Row Layer    Maximum-Flux-Residual          L2-NORM 
          0                 1           2             9   24     1      -0.2356577985E-02       9   36    1        -0.1588720609E+01      0.1660761982E+02
          0                 2           1            17   16     1       0.1401542855E-03      50   31    1        -0.1109628115E-01      0.1508335519E+00
          0                 3           1            17   17     2       0.6077779767E-04      13   19    2         0.4933772051E-02      0.7343076401E-01
          0                 4           1            17   17     2       0.4721252527E-04      17   19    2         0.2646091404E-02      0.4287770639E-01
          0                 5           1            19   17     2       0.2144693976E-04      48   41    1         0.1946925933E-02      0.2754429236E-01
          0                 6           1            17   19     2       0.2066059309E-04      50   39    1         0.1150409696E-02      0.1963807632E-01
          0                 7           1            21   19     2       0.1074015690E-04      48   41    1         0.9821621946E-03      0.1516821581E-01
          0                 8           1            19   21     2       0.1186562359E-04      36   21    1         0.6266288122E-03      0.1242492900E-01
          0                 9           1            23   21     2       0.7755309060E-05      48   25    1         0.6005349465E-03      0.1073602962E-01

    ------------------------------------------------
       NWT REQUIRED            9 OUTER ITERATIONS 
       AND A TOTAL OF         10 INNER ITERATIONS.
    ------------------------------------------------

 OUTPUT CONTROL FOR STRESS PERIOD    1   TIME STEP  163
    SAVE HEAD FOR ALL LAYERS
 SOLVING FOR ZETA FOR LAYER     1 ZONE     2

     977 UPPER PART EQS.       964 LOWER PART EQS.    BAND WIDTH + 1 =   46
 STRESS PERIOD=  1 TIMESTEP=163 LAYER=  1 ZONE=  2 ACTIVE CELLS= 1941 NUMBER OF EQUATIONS=    1941
 UBUDSV SAVING "      ZETASRF  1" ON UNIT 55 AT TIME STEP163, STRESS PERIOD    1

 HEAD WILL BE SAVED ON UNIT   51 AT END OF TIME STEP  163, STRESS PERIOD    1
 
 SOLVING FOR HEAD 
                                                   Max.-Head-Change                         Max.-Flux-Residual
  Residual-Control   Outer-Iter.   Inner-Iter.     Column Row Layer    Maximum-Head-Change  Column Row Layer    Maximum-Flux-Residual          L2-NORM 
          0                 1           2            30    9     1      -0.2473726680E-02      35    9    1        -0.1611627161E+01      0.1631111521E+02
          0                 2           1            45   45     2      -0.1542402644E-03      50   31    1         0.1114160683E-01      0.1565909697E+00
          0                 3           1            47   44     1      -0.6781771588E-04      48   45    1        -0.6126659326E-02      0.8228817751E-01
          0                 4           1            45   45     2      -0.5889199881E-04      45   47    2        -0.3174246414E-02      0.5155197145E-01
          0                 5           1            42   44     2      -0.2741665527E-04      48   41    1        -0.2288750220E-02      0.3600519067E-01
          0                 6           1            45   43     2      -0.2816968447E-04      46   42    2        -0.1438304144E-02      0.2789057049E-01
          0                 7           1            42   42     2      -0.1690632950E-04      48   41    1        -0.1288598888E-02      0.2330480942E-01
          0                 8           1            38   42     2      -0.1845466458E-04      40   35    1        -0.1039096187E-02      0.2012182332E-01
          0                 9           1            38   36     2      -0.1390898593E-04      40   35    1        -0.1077916933E-02      0.1806693292E-01
          0                10           1            33   35     2      -0.1561317838E-04      34   29    1        -0.9743010083E-03      0.1611293620E-01
                                                   Max.-Head-Change                         Max.-Flux-Residual
  Residual-Control   Outer-Iter.   Inner-Iter.     Column Row Layer    Maximum-Head-Change  Column Row Layer    Maximum-Flux-Residual          L2-NORM 
          0                11           1            32   33     1      -0.1293264860E-04      34   29    1        -0.9811454143E-03      0.1468386231E-01
          0                12           1            32   32     2      -0.1358524029E-04      34   29    1        -0.9023547599E-03      0.1321018292E-01
          0                13           1            31   32     1      -0.1138089942E-04      34   29    1        -0.8581723692E-03      0.1204247433E-01
          0                14           1            32   32     2      -0.1149574408E-04      34   29    1        -0.7780666991E-03      0.1086121050E-01
          0                15           1            31   32     1      -0.9593075609E-05      34   29    1        -0.7248093668E-03      0.9896003350E-02

    ------------------------------------------------
       NWT REQUIRED           15 OUTER ITERATIONS 
       AND A TOTAL OF         16 INNER ITERATIONS.
    ------------------------------------------------

 OUTPUT CONTROL FOR STRESS PERIOD    1   TIME STEP  164
    SAVE HEAD FOR ALL LAYERS
 SOLVING FOR ZETA FOR LAYER     1 ZONE     2

     969 UPPER PART EQS.       972 LOWER PART EQS.    BAND WIDTH + 1 =   44
 STRESS PERIOD=  1 TIMESTEP=164 LAYER=  1 ZONE=  2 ACTIVE CELLS= 1941 NUMBER OF EQUATIONS=    1941
 UBUDSV SAVING "      ZETASRF  1" ON UNIT 55 AT TIME STEP164, STRESS PERIOD    1

 HEAD WILL BE SAVED ON UNIT   51 AT END OF TIME STEP  164, STRESS PERIOD    1
 
 SOLVING FOR HEAD 
                                                   Max.-Head-Change                         Max.-Flux-Residual
  Residual-Control   Outer-Iter.   Inner-Iter.     Column Row Layer    Maximum-Head-Change  Column Row Layer    Maximum-Flux-Residual          L2-NORM 
          0                 1           2            24    9     1      -0.2346570362E-02      53   25    1        -0.1418329603E+01      0.1513861704E+02
          0                 2           1            17   15     2       0.1291615187E-03      50   31    1        -0.1320830872E-01      0.1473488916E+00
          0                 3           1            15   17     2       0.4356015799E-04      47   30    1        -0.4558846947E-02      0.6807040318E-01
          0                 4           1            16   16     2       0.3394917714E-04      50   31    1        -0.2490088128E-02      0.3600015362E-01
          0                 5           1            32   32     2      -0.1555861419E-04      48   33    1        -0.1487800713E-02      0.2090158684E-01
          0                 6           1            32   32     2      -0.1873776715E-04      32   32    2        -0.8118886044E-03      0.1375938688E-01
          0                 7           1            32   33     1      -0.1103102192E-04      48   33    1        -0.6843517158E-03      0.1005098494E-01
          0                 8           1            32   33     1      -0.1315067743E-04      32   32    2        -0.5334349715E-03      0.8024158837E-02
          0                 9           1            32   33     1      -0.7869900323E-05      32   32    2        -0.4240431232E-03      0.6826830601E-02

    ------------------------------------------------
       NWT REQUIRED            9 OUTER ITERATIONS 
       AND A TOTAL OF         10 INNER ITERATIONS.
    ------------------------------------------------

 OUTPUT CONTROL FOR STRESS PERIOD    1   TIME STEP  165
    SAVE HEAD FOR ALL LAYERS
 SOLVING FOR ZETA FOR LAYER     1 ZONE     2

     977 UPPER PART EQS.       980 LOWER PART EQS.    BAND WIDTH + 1 =   46
 STRESS PERIOD=  1 TIMESTEP=165 LAYER=  1 ZONE=  2 ACTIVE CELLS= 1957 NUMBER OF EQUATIONS=    1957
 UBUDSV SAVING "      ZETASRF  1" ON UNIT 55 AT TIME STEP165, STRESS PERIOD    1

 HEAD WILL BE SAVED ON UNIT   51 AT END OF TIME STEP  165, STRESS PERIOD    1
 
 SOLVING FOR HEAD 
                                                   Max.-Head-Change                         Max.-Flux-Residual
  Residual-Control   Outer-Iter.   Inner-Iter.     Column Row Layer    Maximum-Head-Change  Column Row Layer    Maximum-Flux-Residual          L2-NORM 
          0                 1           2            33    9     1      -0.2503286366E-02       9   27    1        -0.1485879834E+01      0.1659139337E+02
          0                 2           1            31   13     2       0.1540898759E-03      50   31    1         0.1474254236E-01      0.1500678720E+00
          0                 3           1            48   31     1       0.4603995090E-04      48   33    1         0.5641832909E-02      0.6744707429E-01
          0                 4           1            45   31     2       0.3448949791E-04      50   31    1         0.2799511070E-02      0.3537980274E-01
          0                 5           1            29   20     1       0.1559301499E-04      48   33    1         0.1772722545E-02      0.2210915195E-01
          0                 6           1            28   25     1       0.1876467295E-04      38   35    1         0.9968913663E-03      0.1675057753E-01
          0                 7           1            29   28     1       0.1400348096E-04      38   35    1         0.8527385015E-03      0.1432237344E-01
          0                 8           1            29   28     1       0.1573224904E-04      38   35    1         0.7755357484E-03      0.1268762090E-01
          0                 9           1            31   29     2       0.1240244617E-04      38   35    1         0.6681979331E-03      0.1147288233E-01
          0                10           1            30   29     1       0.1180749111E-04      38   35    1         0.6250029787E-03      0.1032063664E-01
                                                   Max.-Head-Change                         Max.-Flux-Residual
  Residual-Control   Outer-Iter.   Inner-Iter.     Column Row Layer    Maximum-Head-Change  Column Row Layer    Maximum-Flux-Residual          L2-NORM 
          0                11           1            31   29     2       0.1028457075E-04      38   35    1         0.5291972956E-03      0.9348714648E-02
          0                12           1            30   30     2       0.9155529191E-05      38   35    1         0.5139035904E-03      0.8454194376E-02

    ------------------------------------------------
       NWT REQUIRED           12 OUTER ITERATIONS 
       AND A TOTAL OF         13 INNER ITERATIONS.
    ------------------------------------------------

 OUTPUT CONTROL FOR STRESS PERIOD    1   TIME STEP  166
    SAVE HEAD FOR ALL LAYERS
 SOLVING FOR ZETA FOR LAYER     1 ZONE     2

     969 UPPER PART EQS.       964 LOWER PART EQS.    BAND WIDTH + 1 =   44
 STRESS PERIOD=  1 TIMESTEP=166 LAYER=  1 ZONE=  2 ACTIVE CELLS= 1933 NUMBER OF EQUATIONS=    1933
 UBUDSV SAVING "      ZETASRF  1" ON UNIT 55 AT TIME STEP166, STRESS PERIOD    1

 HEAD WILL BE SAVED ON UNIT   51 AT END OF TIME STEP  166, STRESS PERIOD    1
 
 SOLVING FOR HEAD 
                                                   Max.-Head-Change                         Max.-Flux-Residual
  Residual-Control   Outer-Iter.   Inner-Iter.     Column Row Layer    Maximum-Head-Change  Column Row Layer    Maximum-Flux-Residual          L2-NORM 
          0                 1           2            28   53     1       0.2340370785E-02      36    9    1         0.1355154400E+01      0.1334434080E+02
          0                 2           1            32   48     2      -0.2304254628E-03      50   31    1        -0.1863948161E-01      0.1922104120E+00
          0                 3           1            47   32     1      -0.7967285412E-04      49   31    2        -0.7995540737E-02      0.1058585162E+00
          0                 4           1            45   31     2      -0.9136206424E-04      50   31    1        -0.4748166823E-02      0.7713809162E-01
          0                 5           1            41   33     2      -0.5281026813E-04      48   33    1        -0.3469033407E-02      0.6504846292E-01
          0                 6           1            37   35     2      -0.6529238741E-04      46   34    2        -0.2702045559E-02      0.5772501731E-01
          0                 7           1            32   32     2      -0.4630595517E-04      48   33    1        -0.2622338557E-02      0.5193828398E-01
          0                 8           1            31   32     1      -0.5496099149E-04      46   34    2        -0.2218134361E-02      0.4664956894E-01
          0                 9           1            32   32     2      -0.4045147675E-04      42   34    2        -0.2179610589E-02      0.4214232682E-01
          0                10           1            31   32     1      -0.4473294140E-04      46   34    2        -0.1908227979E-02      0.3798819904E-01
                                                   Max.-Head-Change                         Max.-Flux-Residual
  Residual-Control   Outer-Iter.   Inner-Iter.     Column Row Layer    Maximum-Head-Change  Column Row Layer    Maximum-Flux-Residual          L2-NORM 
          0                11           1            32   32     2      -0.3402767736E-04      42   34    2        -0.1879948439E-02      0.3434875789E-01
          0                12           1            31   32     1      -0.3619443785E-04      46   34    2        -0.1637047894E-02      0.3102310543E-01
          0                13           1            32   32     2      -0.2822506956E-04      42   34    2        -0.1615933351E-02      0.2806353350E-01
          0                14           1            31   32     1      -0.2934865583E-04      46   34    2        -0.1389090088E-02      0.2537574317E-01
          0                15           1            33   31     2      -0.2330346274E-04      42   34    2        -0.1379602680E-02      0.2296198738E-01
          0                16           1            31   32     1      -0.2386757605E-04      46   34    2        -0.1164734897E-02      0.2077849289E-01
          0                17           1            33   31     2      -0.1922267811E-04      42   34    2        -0.1168441466E-02      0.1880673265E-01
          0                18           1            30   32     2      -0.1947880168E-04      46   34    2        -0.9657761618E-03      0.1702732789E-01
          0                19           1            33   31     2      -0.1584080986E-04      42   34    2        -0.9813680268E-03      0.1541490465E-01
          0                20           1            30   32     2      -0.1593426341E-04      39   33    2        -0.7968444510E-03      0.1396177152E-01
                                                   Max.-Head-Change                         Max.-Flux-Residual
  Residual-Control   Outer-Iter.   Inner-Iter.     Column Row Layer    Maximum-Head-Change  Column Row Layer    Maximum-Flux-Residual          L2-NORM 
          0                21           1            33   31     2      -0.1305042311E-04      42   34    2        -0.8174779165E-03      0.1264213049E-01
          0                22           1            30   32     2      -0.1305348551E-04      39   33    2        -0.6779471141E-03      0.1145370214E-01
          0                23           1            34   32     2      -0.1076040353E-04      42   34    2        -0.6756060067E-03      0.1037296670E-01
          0                24           1            30   32     2      -0.1070335050E-04      39   33    2        -0.5748830506E-03      0.9399989398E-02
          0                25           1            34   32     2      -0.8888866345E-05      43   33    2        -0.5655714601E-03      0.8514412500E-02

    ------------------------------------------------
       NWT REQUIRED           25 OUTER ITERATIONS 
       AND A TOTAL OF         26 INNER ITERATIONS.
    ------------------------------------------------

 OUTPUT CONTROL FOR STRESS PERIOD    1   TIME STEP  167
    SAVE HEAD FOR ALL LAYERS
 SOLVING FOR ZETA FOR LAYER     1 ZONE     2

     993 UPPER PART EQS.       988 LOWER PART EQS.    BAND WIDTH + 1 =   46
 STRESS PERIOD=  1 TIMESTEP=167 LAYER=  1 ZONE=  2 ACTIVE CELLS= 1981 NUMBER OF EQUATIONS=    1981
 UBUDSV SAVING "      ZETASRF  1" ON UNIT 55 AT TIME STEP167, STRESS PERIOD    1

 HEAD WILL BE SAVED ON UNIT   51 AT END OF TIME STEP  167, STRESS PERIOD    1
 
 SOLVING FOR HEAD 
                                                   Max.-Head-Change                         Max.-Flux-Residual
  Residual-Control   Outer-Iter.   Inner-Iter.     Column Row Layer    Maximum-Head-Change  Column Row Layer    Maximum-Flux-Residual          L2-NORM 
          0                 1           2            11   31     1       0.2536918370E-02      53   31    1        -0.1475136420E+01      0.1744084947E+02
          0                 2           1            30   14     2       0.3340304021E-03      50   31    1         0.2136814086E-01      0.2746168682E+00
          0                 3           1            47   30     1       0.1304717805E-03      48   33    1         0.1165185109E-01      0.1778982991E+00
          0                 4           1            45   31     2       0.1504514709E-03      50   31    1         0.7014135510E-02      0.1408527867E+00
          0                 5           1            41   35     2       0.8136132516E-04      48   37    1         0.6466984013E-02      0.1209271262E+00
          0                 6           1            37   33     2       0.1164669147E-03      34   35    1         0.6058051487E-02      0.1063626901E+00
          0                 7           1            32   30     2       0.7439859090E-04      34   35    1         0.6608700841E-02      0.9574652506E-01
          0                 8           1            31   30     1       0.1055588593E-03      34   35    1         0.5771215836E-02      0.8520738927E-01
          0                 9           1            32   30     2       0.6681373797E-04      34   35    1         0.5843150545E-02      0.7732862558E-01
          0                10           1            30   31     1       0.8665614795E-04      34   35    1         0.4953632614E-02      0.6905930832E-01
                                                   Max.-Head-Change                         Max.-Flux-Residual
  Residual-Control   Outer-Iter.   Inner-Iter.     Column Row Layer    Maximum-Head-Change  Column Row Layer    Maximum-Flux-Residual          L2-NORM 
          0                11           1            33   31     2       0.5728568545E-04      34   35    1         0.4851096541E-02      0.6275531438E-01
          0                12           1            30   31     1       0.6929611655E-04      34   35    1         0.4127303917E-02      0.5622951426E-01
          0                13           1            33   31     2       0.4824455499E-04      34   35    1         0.3964062456E-02      0.5109555423E-01
          0                14           1            31   31     2       0.5534630592E-04      34   35    1         0.3404207830E-02      0.4590495304E-01
          0                15           1            33   31     2       0.4023478567E-04      34   35    1         0.3229526862E-02      0.4170261563E-01
          0                16           1            31   31     2       0.4449149748E-04      34   35    1         0.2796662473E-02      0.3754005800E-01
          0                17           1            33   31     2       0.3334279046E-04      34   35    1         0.2632665020E-02      0.3409497487E-01
          0                18           1            31   31     2       0.3598058414E-04      34   35    1         0.2293389174E-02      0.3073427136E-01
          0                19           1            33   31     2       0.2750156186E-04      34   35    1         0.2149307084E-02      0.2790924410E-01
          0                20           1            31   31     2       0.2925795660E-04      34   35    1         0.1878850043E-02      0.2518176892E-01
                                                   Max.-Head-Change                         Max.-Flux-Residual
  Residual-Control   Outer-Iter.   Inner-Iter.     Column Row Layer    Maximum-Head-Change  Column Row Layer    Maximum-Flux-Residual          L2-NORM 
          0                21           1            33   31     2       0.2259833968E-04      34   35    1         0.1757398694E-02      0.2286579958E-01
          0                22           1            31   31     2       0.2390256111E-04      34   35    1         0.1538310594E-02      0.2064341928E-01
          0                23           1            34   30     2       0.1855111407E-04      34   35    1         0.1438867562E-02      0.1874562565E-01
          0                24           1            31   31     2       0.1960176049E-04      34   35    1         0.1258991719E-02      0.1692927695E-01
          0                25           1            34   30     2       0.1520126738E-04      34   35    1         0.1179314360E-02      0.1537486701E-01
          0                26           1            31   31     2       0.1612282077E-04      34   35    1         0.1030129237E-02      0.1388689329E-01
          0                27           1            34   30     2       0.1242976149E-04      34   35    1         0.9673264409E-03      0.1261421963E-01
          0                28           1            31   31     2       0.1329089800E-04      34   35    1         0.8427554127E-03      0.1139308761E-01
          0                29           1            34   30     2       0.1014633742E-04      34   35    1         0.7938400848E-03      0.1035135500E-01
          0                30           1            31   31     2       0.1097323288E-04      34   35    1         0.6894375755E-03      0.9347897095E-02
          0                31           1            34   30     2       0.8271767648E-05      34   35    1         0.6516272406E-03      0.8495307667E-02

    ------------------------------------------------
       NWT REQUIRED           31 OUTER ITERATIONS 
       AND A TOTAL OF         32 INNER ITERATIONS.
    ------------------------------------------------

 OUTPUT CONTROL FOR STRESS PERIOD    1   TIME STEP  168
    SAVE HEAD FOR ALL LAYERS
 SOLVING FOR ZETA FOR LAYER     1 ZONE     2

     945 UPPER PART EQS.       956 LOWER PART EQS.    BAND WIDTH + 1 =   44
 STRESS PERIOD=  1 TIMESTEP=168 LAYER=  1 ZONE=  2 ACTIVE CELLS= 1901 NUMBER OF EQUATIONS=    1901
 UBUDSV SAVING "      ZETASRF  1" ON UNIT 55 AT TIME STEP168, STRESS PERIOD    1

 HEAD WILL BE SAVED ON UNIT   51 AT END OF TIME STEP  168, STRESS PERIOD    1
 
 SOLVING FOR HEAD 
                                                   Max.-Head-Change                         Max.-Flux-Residual
  Residual-Control   Outer-Iter.   Inner-Iter.     Column Row Layer    Maximum-Head-Change  Column Row Layer    Maximum-Flux-Residual          L2-NORM 
          0                 1           2            32   53     1       0.2357456663E-02       9   23    1         0.1308743850E+01      0.1317232994E+02
          0                 2           1            32   48     2      -0.3596931382E-03      50   31    1        -0.2503571855E-01      0.3321826365E+00
          0                 3           1            48   32     2      -0.1602808270E-03      49   31    2        -0.1333067786E-01      0.2364178021E+00
          0                 4           1            45   33     2      -0.1832034149E-03      50   31    1        -0.9880143965E-02      0.1925510712E+00
          0                 5           1            41   37     2      -0.1241621354E-03      30   30    2        -0.8864861241E-02      0.1672097751E+00
          0                 6           1            37   37     2      -0.1450876361E-03      30   30    2        -0.9850594292E-02      0.1478506135E+00
          0                 7           1            33   33     2      -0.1096492123E-03      30   30    2        -0.1086514400E-01      0.1337837734E+00
          0                 8           1            31   30     2      -0.1312854513E-03      30   30    2        -0.9968541793E-02      0.1197830358E+00
          0                 9           1            31   32     2      -0.9965768435E-04      30   30    2        -0.9988179909E-02      0.1090865312E+00
          0                10           1            31   30     2      -0.1089282530E-03      30   30    2        -0.8814762828E-02      0.9795520745E-01
                                                   Max.-Head-Change                         Max.-Flux-Residual
  Residual-Control   Outer-Iter.   Inner-Iter.     Column Row Layer    Maximum-Head-Change  Column Row Layer    Maximum-Flux-Residual          L2-NORM 
          0                11           1            31   32     2      -0.8620125304E-04      30   30    2        -0.8448065125E-02      0.8914086449E-01
          0                12           1            31   31     2      -0.8814229787E-04      30   30    2        -0.7461298427E-02      0.8026846687E-01
          0                13           1            31   32     2      -0.7298779511E-04      30   30    2        -0.6964250188E-02      0.7291574084E-01
          0                14           1            31   31     2      -0.7101418306E-04      30   30    2        -0.6213214896E-02      0.6582913640E-01
          0                15           1            33   31     2      -0.6125452177E-04      30   30    2        -0.5694229003E-02      0.5969795017E-01
          0                16           1            31   31     2      -0.5723749532E-04      30   30    2        -0.5139252442E-02      0.5401373820E-01
          0                17           1            33   31     2      -0.5116195907E-04      30   30    2        -0.4644880511E-02      0.4891187211E-01
          0                18           1            31   31     2      -0.4623372577E-04      30   30    2        -0.4238196784E-02      0.4433287885E-01
          0                19           1            30   31     1      -0.4259929814E-04      30   30    2        -0.3787788694E-02      0.4009599689E-01
          0                20           1            31   31     2      -0.3743631049E-04      30   30    2        -0.3489865442E-02      0.3639368772E-01
                                                   Max.-Head-Change                         Max.-Flux-Residual
  Residual-Control   Outer-Iter.   Inner-Iter.     Column Row Layer    Maximum-Head-Change  Column Row Layer    Maximum-Flux-Residual          L2-NORM 
          0                21           1            30   31     1      -0.3540130108E-04      30   30    2        -0.3090099590E-02      0.3288114284E-01
          0                22           1            31   31     2      -0.3037856692E-04      30   30    2        -0.2871068502E-02      0.2987877425E-01
          0                23           1            34   32     2      -0.2940170210E-04      30   30    2        -0.2522361097E-02      0.2697087654E-01
          0                24           1            31   31     2      -0.2469537356E-04      30   30    2        -0.2360532725E-02      0.2453045851E-01
          0                25           1            34   32     2      -0.2437956823E-04      30   30    2        -0.2060050702E-02      0.2212611562E-01
          0                26           1            31   31     2      -0.2010499174E-04      30   30    2        -0.1939768144E-02      0.2013882111E-01
          0                27           1            35   33     2      -0.2023706951E-04      30   30    2        -0.1683283412E-02      0.1815297940E-01
          0                28           1            31   31     2      -0.1638726414E-04      30   30    2        -0.1593295469E-02      0.1653231781E-01
          0                29           1            35   33     2      -0.1679507535E-04      30   30    2        -0.1375964001E-02      0.1489370252E-01
          0                30           1            31   32     2      -0.1337194313E-04      30   30    2        -0.1308165346E-02      0.1357050436E-01
                                                   Max.-Head-Change                         Max.-Flux-Residual
  Residual-Control   Outer-Iter.   Inner-Iter.     Column Row Layer    Maximum-Head-Change  Column Row Layer    Maximum-Flux-Residual          L2-NORM 
          0                31           1            35   33     2      -0.1391969007E-04      30   30    2        -0.1125099609E-02      0.1221953551E-01
          0                32           1            31   32     2      -0.1092161257E-04      30   30    2        -0.1073667508E-02      0.1113825152E-01
          0                33           1            35   33     2      -0.1152239764E-04      30   30    2        -0.9201759403E-03      0.1002521644E-01
          0                34           1            32   32     2      -0.8924946248E-05      30   30    2        -0.8809231715E-03      0.9141017441E-02

    ------------------------------------------------
       NWT REQUIRED           34 OUTER ITERATIONS 
       AND A TOTAL OF         35 INNER ITERATIONS.
    ------------------------------------------------

 OUTPUT CONTROL FOR STRESS PERIOD    1   TIME STEP  169
    SAVE HEAD FOR ALL LAYERS
 SOLVING FOR ZETA FOR LAYER     1 ZONE     2

    1009 UPPER PART EQS.      1004 LOWER PART EQS.    BAND WIDTH + 1 =   46
 STRESS PERIOD=  1 TIMESTEP=169 LAYER=  1 ZONE=  2 ACTIVE CELLS= 2013 NUMBER OF EQUATIONS=    2013
 UBUDSV SAVING "      ZETASRF  1" ON UNIT 55 AT TIME STEP169, STRESS PERIOD    1

 HEAD WILL BE SAVED ON UNIT   51 AT END OF TIME STEP  169, STRESS PERIOD    1
 
 SOLVING FOR HEAD 
                                                   Max.-Head-Change                         Max.-Flux-Residual
  Residual-Control   Outer-Iter.   Inner-Iter.     Column Row Layer    Maximum-Head-Change  Column Row Layer    Maximum-Flux-Residual          L2-NORM 
          0                 1           2            52   43     1       0.1868676649E-02      53   20    1        -0.1222178058E+01      0.1015811127E+02
          0                 2           1            46   46     2       0.2409976660E-03      45   47    2         0.1210018820E-01      0.1754658889E+00
          0                 3           1            42   19     1       0.7291610867E-04      49   44    1         0.8111385065E-02      0.1135216365E+00
          0                 4           1            19   19     2       0.9628519811E-04      50   43    1         0.4568629270E-02      0.8457735203E-01
          0                 5           1            41   21     2       0.4077366173E-04      48   21    1         0.4075074379E-02      0.6928903533E-01
          0                 6           1            38   22     2       0.6413991637E-04      30   23    1         0.3298037901E-02      0.5902624316E-01
          0                 7           1            27   25     1       0.3650364637E-04      30   23    1         0.3435983737E-02      0.5259966656E-01
          0                 8           1            31   29     2       0.5457079761E-04      30   23    1         0.2933584391E-02      0.4638473691E-01
          0                 9           1            31   30     1       0.3502194672E-04      30   23    1         0.2924541419E-02      0.4217590708E-01
          0                10           1            31   30     1       0.4474784542E-04      24   33    1         0.2486812760E-02      0.3758917227E-01
                                                   Max.-Head-Change                         Max.-Flux-Residual
  Residual-Control   Outer-Iter.   Inner-Iter.     Column Row Layer    Maximum-Head-Change  Column Row Layer    Maximum-Flux-Residual          L2-NORM 
          0                11           1            31   30     1       0.3149633829E-04      24   33    1         0.2392521241E-02      0.3423510334E-01
          0                12           1            31   30     1       0.3550562098E-04      24   33    1         0.2100049128E-02      0.3071785868E-01
          0                13           1            31   30     1       0.2718430962E-04      24   33    1         0.1962571693E-02      0.2795048004E-01
          0                14           1            31   31     2       0.2839944157E-04      24   33    1         0.1747707862E-02      0.2518095184E-01
          0                15           1            30   31     1       0.2294368717E-04      24   33    1         0.1607409186E-02      0.2288667300E-01
          0                16           1            31   31     2       0.2292963684E-04      24   33    1         0.1444031843E-02      0.2066539222E-01
          0                17           1            30   31     1       0.1910775915E-04      24   33    1         0.1317001466E-02      0.1876877221E-01
          0                18           1            31   31     2       0.1864641692E-04      24   33    1         0.1188630017E-02      0.1696830615E-01
          0                19           1            30   31     1       0.1578529683E-04      24   33    1         0.1079869346E-02      0.1540566020E-01
          0                20           1            31   31     2       0.1524346442E-04      24   33    1         0.9764421188E-03      0.1393700660E-01
                                                   Max.-Head-Change                         Max.-Flux-Residual
  Residual-Control   Outer-Iter.   Inner-Iter.     Column Row Layer    Maximum-Head-Change  Column Row Layer    Maximum-Flux-Residual          L2-NORM 
          0                21           1            30   31     1       0.1297527183E-04      24   33    1         0.8860908713E-03      0.1265281280E-01
          0                22           1            31   31     2       0.1251063312E-04      24   33    1         0.8012664367E-03      0.1144998972E-01
          0                23           1            30   31     1       0.1063086177E-04      24   33    1         0.7275755356E-03      0.1039647228E-01
          0                24           1            30   31     1       0.1029868558E-04      24   33    1         0.6571244028E-03      0.9408670367E-02
          0                25           1            30   31     1       0.8691108380E-05      24   33    1         0.5977659204E-03      0.8545384681E-02

    ------------------------------------------------
       NWT REQUIRED           25 OUTER ITERATIONS 
       AND A TOTAL OF         26 INNER ITERATIONS.
    ------------------------------------------------

 OUTPUT CONTROL FOR STRESS PERIOD    1   TIME STEP  170
    SAVE HEAD FOR ALL LAYERS
 SOLVING FOR ZETA FOR LAYER     1 ZONE     2

     981 UPPER PART EQS.       964 LOWER PART EQS.    BAND WIDTH + 1 =   44
 STRESS PERIOD=  1 TIMESTEP=170 LAYER=  1 ZONE=  2 ACTIVE CELLS= 1945 NUMBER OF EQUATIONS=    1945
 UBUDSV SAVING "      ZETASRF  1" ON UNIT 55 AT TIME STEP170, STRESS PERIOD    1

 HEAD WILL BE SAVED ON UNIT   51 AT END OF TIME STEP  170, STRESS PERIOD    1
 
 SOLVING FOR HEAD 
                                                   Max.-Head-Change                         Max.-Flux-Residual
  Residual-Control   Outer-Iter.   Inner-Iter.     Column Row Layer    Maximum-Head-Change  Column Row Layer    Maximum-Flux-Residual          L2-NORM 
          0                 1           2            52   31     1       0.2531528609E-02      31   53    1        -0.1386070816E+01      0.1683739025E+02
          0                 2           1            30   14     2       0.2971994099E-03      50   31    1         0.1979935357E-01      0.2444153884E+00
          0                 3           1            47   30     1       0.1074884863E-03      48   33    1         0.1039113706E-01      0.1444417801E+00
          0                 4           1            45   31     2       0.1270346494E-03      46   30    2         0.5608615574E-02      0.1102687198E+00
          0                 5           1            41   33     2       0.6740497710E-04      48   33    1         0.5076968070E-02      0.9387176671E-01
          0                 6           1            29   27     2       0.9885686368E-04      38   34    2         0.3425077037E-02      0.8321833589E-01
          0                 7           1            31   30     1       0.6132486517E-04      48   33    1         0.3911607782E-02      0.7458151240E-01
          0                 8           1            30   30     2       0.8864420482E-04      30   30    2         0.3049204257E-02      0.6674669011E-01
          0                 9           1            32   31     2       0.5212812213E-04      48   37    1         0.3258392556E-02      0.6009040797E-01
          0                10           1            31   31     2       0.7322419339E-04      30   30    2         0.2572949282E-02      0.5391347354E-01
                                                   Max.-Head-Change                         Max.-Flux-Residual
  Residual-Control   Outer-Iter.   Inner-Iter.     Column Row Layer    Maximum-Head-Change  Column Row Layer    Maximum-Flux-Residual          L2-NORM 
          0                11           1            33   31     2       0.4306978667E-04      48   37    1         0.2719086224E-02      0.4860049916E-01
          0                12           1            31   31     2       0.5928135487E-04      30   30    2         0.2118821978E-02      0.4366648561E-01
          0                13           1            33   31     2       0.3533390845E-04      48   37    1         0.2244510515E-02      0.3939585684E-01
          0                14           1            31   31     2       0.4772944479E-04      30   30    2         0.1732448964E-02      0.3543181940E-01
          0                15           1            33   31     2       0.2893294279E-04      48   37    1         0.1833122804E-02      0.3198880782E-01
          0                16           1            31   31     2       0.3840004144E-04      32   32    2         0.1415845435E-02      0.2879352006E-01
          0                17           1            33   31     2       0.2368747809E-04      48   29    1         0.1488064262E-02      0.2601167548E-01
          0                18           1            31   31     2       0.3092909650E-04      39   33    2         0.1163228639E-02      0.2342977347E-01
          0                19           1            33   31     2       0.1939638698E-04      48   29    1         0.1211223076E-02      0.2117770544E-01
          0                20           1            31   31     2       0.2495811769E-04      44   29    1         0.9785384424E-03      0.1908718888E-01
                                                   Max.-Head-Change                         Max.-Flux-Residual
  Residual-Control   Outer-Iter.   Inner-Iter.     Column Row Layer    Maximum-Head-Change  Column Row Layer    Maximum-Flux-Residual          L2-NORM 
          0                21           1            34   30     2       0.1588459529E-04      48   29    1         0.9827809083E-03      0.1726068209E-01
          0                22           1            31   31     2       0.2018142413E-04      44   29    1         0.8218227882E-03      0.1556503819E-01
          0                23           1            34   30     2       0.1304965168E-04      48   29    1         0.7954199268E-03      0.1408122318E-01
          0                24           1            31   31     2       0.1635135614E-04      44   29    1         0.6877691287E-03      0.1270375657E-01
          0                25           1            34   30     2       0.1071819238E-04      47   26    1         0.6509901024E-03      0.1149656843E-01
          0                26           1            31   31     2       0.1327155413E-04      44   29    1         0.5735649613E-03      0.1037610592E-01
          0                27           1            34   30     2       0.8800270928E-05      40   29    1         0.5401409236E-03      0.9392723193E-02

    ------------------------------------------------
       NWT REQUIRED           27 OUTER ITERATIONS 
       AND A TOTAL OF         28 INNER ITERATIONS.
    ------------------------------------------------

 OUTPUT CONTROL FOR STRESS PERIOD    1   TIME STEP  171
    SAVE HEAD FOR ALL LAYERS
 SOLVING FOR ZETA FOR LAYER     1 ZONE     2

     973 UPPER PART EQS.       964 LOWER PART EQS.    BAND WIDTH + 1 =   46
 STRESS PERIOD=  1 TIMESTEP=171 LAYER=  1 ZONE=  2 ACTIVE CELLS= 1937 NUMBER OF EQUATIONS=    1937
 UBUDSV SAVING "      ZETASRF  1" ON UNIT 55 AT TIME STEP171, STRESS PERIOD    1

 HEAD WILL BE SAVED ON UNIT   51 AT END OF TIME STEP  171, STRESS PERIOD    1
 
 SOLVING FOR HEAD 
                                                   Max.-Head-Change                         Max.-Flux-Residual
  Residual-Control   Outer-Iter.   Inner-Iter.     Column Row Layer    Maximum-Head-Change  Column Row Layer    Maximum-Flux-Residual          L2-NORM 
          0                 1           2            32   53     1       0.2358367788E-02      53   38    1         0.1320313195E+01      0.1272534005E+02
          0                 2           1            32   48     2      -0.3382919539E-03      50   31    1        -0.2429055165E-01      0.2994826627E+00
          0                 3           1            48   32     2      -0.1471867118E-03      49   31    2        -0.1245776105E-01      0.2081692559E+00
          0                 4           1            45   33     2      -0.1702843864E-03      50   31    1        -0.9017771216E-02      0.1692885866E+00
          0                 5           1            41   35     2      -0.1100049841E-03      32   32    2        -0.7929084796E-02      0.1470513628E+00
          0                 6           1            37   35     2      -0.1334635773E-03      32   32    2        -0.8721638897E-02      0.1301693204E+00
          0                 7           1            33   33     2      -0.9675352467E-04      32   32    2        -0.9339233180E-02      0.1174493843E+00
          0                 8           1            31   32     2      -0.1189381485E-03      32   32    2        -0.8604984525E-02      0.1052346285E+00
          0                 9           1            31   31     2      -0.8708268112E-04      32   32    2        -0.8454010398E-02      0.9553856428E-01
          0                10           1            31   32     2      -0.9825824253E-04      32   32    2        -0.7508949215E-02      0.8587243983E-01
                                                   Max.-Head-Change                         Max.-Flux-Residual
  Residual-Control   Outer-Iter.   Inner-Iter.     Column Row Layer    Maximum-Head-Change  Column Row Layer    Maximum-Flux-Residual          L2-NORM 
          0                11           1            32   32     2      -0.7499980331E-04      32   32    2        -0.7112193985E-02      0.7798483723E-01
          0                12           1            30   30     2      -0.7932305025E-04      32   32    2        -0.6314639769E-02      0.7026447080E-01
          0                13           1            33   31     2      -0.6345146475E-04      32   32    2        -0.5849871079E-02      0.6376851832E-01
          0                14           1            30   30     2      -0.6376879236E-04      32   32    2        -0.5242376113E-02      0.5757170490E-01
          0                15           1            33   31     2      -0.5323883090E-04      32   32    2        -0.4776720926E-02      0.5221008244E-01
          0                16           1            31   31     2      -0.5134255178E-04      32   32    2        -0.4331218020E-02      0.4721235635E-01
          0                17           1            33   31     2      -0.4444059192E-04      32   32    2        -0.3892498340E-02      0.4278632726E-01
          0                18           1            31   31     2      -0.4150238588E-04      32   32    2        -0.3571456458E-02      0.3873915947E-01
          0                19           1            33   31     2      -0.3697461772E-04      32   32    2        -0.3171582227E-02      0.3508672708E-01
          0                20           1            31   31     2      -0.3364862990E-04      32   32    2        -0.2942254178E-02      0.3179856528E-01
                                                   Max.-Head-Change                         Max.-Flux-Residual
  Residual-Control   Outer-Iter.   Inner-Iter.     Column Row Layer    Maximum-Head-Change  Column Row Layer    Maximum-Flux-Residual          L2-NORM 
          0                21           1            34   32     2      -0.3072678522E-04      32   32    2        -0.2585648728E-02      0.2878604890E-01
          0                22           1            31   31     2      -0.2735425527E-04      32   32    2        -0.2422503870E-02      0.2610769789E-01
          0                23           1            34   32     2      -0.2551525943E-04      32   32    2        -0.2109564275E-02      0.2362439828E-01
          0                24           1            31   31     2      -0.2228752511E-04      32   32    2        -0.1993634144E-02      0.2143844296E-01
          0                25           1            34   32     2      -0.2114921501E-04      32   32    2        -0.1722439504E-02      0.1939258379E-01
          0                26           1            31   31     2      -0.1819276034E-04      32   32    2        -0.1639980299E-02      0.1760577435E-01
          0                27           1            35   33     2      -0.1752648032E-04      32   32    2        -0.1407315434E-02      0.1592123304E-01
          0                28           1            31   31     2      -0.1487184841E-04      32   32    2        -0.1348516114E-02      0.1445898232E-01
          0                29           1            35   33     2      -0.1453895813E-04      32   32    2        -0.1150516337E-02      0.1307264304E-01
          0                30           1            31   31     2      -0.1217082979E-04      32   32    2        -0.1108435926E-02      0.1187492959E-01
                                                   Max.-Head-Change                         Max.-Flux-Residual
  Residual-Control   Outer-Iter.   Inner-Iter.     Column Row Layer    Maximum-Head-Change  Column Row Layer    Maximum-Flux-Residual          L2-NORM 
          0                31           1            35   33     2      -0.1204439476E-04      32   32    2        -0.9410415680E-03      0.1073449357E-01
          0                32           1            31   31     2      -0.9968708947E-05      32   32    2        -0.9107902017E-03      0.9752795218E-02

    ------------------------------------------------
       NWT REQUIRED           32 OUTER ITERATIONS 
       AND A TOTAL OF         33 INNER ITERATIONS.
    ------------------------------------------------

 OUTPUT CONTROL FOR STRESS PERIOD    1   TIME STEP  172
    SAVE HEAD FOR ALL LAYERS
 SOLVING FOR ZETA FOR LAYER     1 ZONE     2

     989 UPPER PART EQS.       996 LOWER PART EQS.    BAND WIDTH + 1 =   44
 STRESS PERIOD=  1 TIMESTEP=172 LAYER=  1 ZONE=  2 ACTIVE CELLS= 1985 NUMBER OF EQUATIONS=    1985
 UBUDSV SAVING "      ZETASRF  1" ON UNIT 55 AT TIME STEP172, STRESS PERIOD    1

 HEAD WILL BE SAVED ON UNIT   51 AT END OF TIME STEP  172, STRESS PERIOD    1
 
 SOLVING FOR HEAD 
                                                   Max.-Head-Change                         Max.-Flux-Residual
  Residual-Control   Outer-Iter.   Inner-Iter.     Column Row Layer    Maximum-Head-Change  Column Row Layer    Maximum-Flux-Residual          L2-NORM 
          0                 1           1            31   31     2      -0.7793391387E-03      14   53    1        -0.7190939643E+00      0.4951422611E+01
          0                 2           1            30   30     2      -0.9800449354E-04      52   29    1         0.2521622227E-01      0.3405688437E+00
          0                 3           1            31   14     1       0.4784066994E-04      49   32    1         0.3394298993E-02      0.4625047724E-01
          0                 4           1            24   16     2       0.2358599882E-04      52   33    1         0.1742220933E-02      0.2956564151E-01
          0                 5           1            24   17     1       0.2061415562E-04      49   32    1         0.1390216390E-02      0.2158768613E-01
          0                 6           1            23   19     2       0.1358580115E-04      52   29    1         0.8384359665E-03      0.1727424921E-01
          0                 7           1            25   20     1       0.1420629605E-04      49   32    1         0.7805754640E-03      0.1441599934E-01
          0                 8           1            25   21     2       0.1029409134E-04      34   23    1         0.6823523512E-03      0.1261919301E-01
          0                 9           1            27   23     1       0.1132942193E-04      34   23    1         0.6081457653E-03      0.1113616519E-01
          0                10           1            29   25     2       0.9045077962E-05      34   23    1         0.5839477411E-03      0.1003086727E-01

    ------------------------------------------------
       NWT REQUIRED           10 OUTER ITERATIONS 
       AND A TOTAL OF         10 INNER ITERATIONS.
    ------------------------------------------------

 OUTPUT CONTROL FOR STRESS PERIOD    1   TIME STEP  173
    SAVE HEAD FOR ALL LAYERS
 SOLVING FOR ZETA FOR LAYER     1 ZONE     2

    1009 UPPER PART EQS.       996 LOWER PART EQS.    BAND WIDTH + 1 =   46
 STRESS PERIOD=  1 TIMESTEP=173 LAYER=  1 ZONE=  2 ACTIVE CELLS= 2005 NUMBER OF EQUATIONS=    2005
 UBUDSV SAVING "      ZETASRF  1" ON UNIT 55 AT TIME STEP173, STRESS PERIOD    1

 HEAD WILL BE SAVED ON UNIT   51 AT END OF TIME STEP  173, STRESS PERIOD    1
 
 SOLVING FOR HEAD 
                                                   Max.-Head-Change                         Max.-Flux-Residual
  Residual-Control   Outer-Iter.   Inner-Iter.     Column Row Layer    Maximum-Head-Change  Column Row Layer    Maximum-Flux-Residual          L2-NORM 
          0                 1           2            52   31     1       0.2652401739E-02      31    9    1        -0.1464686266E+01      0.1507191538E+02
          0                 2           1            30   14     2       0.3328809238E-03      50   31    1         0.2055002787E-01      0.2785108889E+00
          0                 3           1            48   33     1       0.1353958435E-03      48   33    1         0.1265367539E-01      0.1950441224E+00
          0                 4           1            45   31     2       0.1617957869E-03      51   30    1         0.8222120883E-02      0.1585248654E+00
          0                 5           1            41   35     2       0.9121981968E-04      48   33    1         0.8253642755E-02      0.1366317458E+00
          0                 6           1            37   33     2       0.1349564926E-03      31   30    1         0.7736655733E-02      0.1201276224E+00
          0                 7           1            32   29     1       0.8400740280E-04      31   30    1         0.8312953942E-02      0.1075709724E+00
          0                 8           1            31   31     1       0.1243773140E-03      31   30    1         0.7537293374E-02      0.9589597278E-01
          0                 9           1            33   31     2       0.7373773468E-04      31   30    1         0.7524245319E-02      0.8654305167E-01
          0                10           1            31   31     1       0.1028675575E-03      31   30    1         0.6465955810E-02      0.7741675440E-01
                                                   Max.-Head-Change                         Max.-Flux-Residual
  Residual-Control   Outer-Iter.   Inner-Iter.     Column Row Layer    Maximum-Head-Change  Column Row Layer    Maximum-Flux-Residual          L2-NORM 
          0                11           1            33   31     2       0.6280132895E-04      30   31    1         0.6312435331E-02      0.6995887509E-01
          0                12           1            31   31     1       0.8141847683E-04      31   30    1         0.5359673243E-02      0.6275251585E-01
          0                13           1            33   31     2       0.5277237788E-04      30   31    1         0.5159608340E-02      0.5678184079E-01
          0                14           1            31   31     1       0.6428040743E-04      31   30    1         0.4399294789E-02      0.5104723206E-01
          0                15           1            33   31     2       0.4411102031E-04      30   31    1         0.4192866849E-02      0.4622160433E-01
          0                16           1            31   31     2       0.5096602819E-04      31   30    1         0.3602563832E-02      0.4162801952E-01
          0                17           1            33   31     2       0.3676725201E-04      30   31    1         0.3404102567E-02      0.3770745096E-01
          0                18           1            31   31     2       0.4066861416E-04      31   30    1         0.2949778976E-02      0.3400838374E-01
          0                19           1            33   31     2       0.3058063850E-04      30   31    1         0.2765712667E-02      0.3081222182E-01
          0                20           1            31   31     2       0.3260884805E-04      31   30    1         0.2416326933E-02      0.2782082724E-01
                                                   Max.-Head-Change                         Max.-Flux-Residual
  Residual-Control   Outer-Iter.   Inner-Iter.     Column Row Layer    Maximum-Head-Change  Column Row Layer    Maximum-Flux-Residual          L2-NORM 
          0                21           1            34   30     2       0.2539734991E-04      30   31    1         0.2249741456E-02      0.2520908224E-01
          0                22           1            31   31     2       0.2626337975E-04      31   30    1         0.1980235036E-02      0.2278182608E-01
          0                23           1            34   30     2       0.2110460646E-04      30   31    1         0.1832305053E-02      0.2064417696E-01
          0                24           1            31   31     2       0.2123617140E-04      31   30    1         0.1623374286E-02      0.1866946914E-01
          0                25           1            34   30     2       0.1750304116E-04      30   31    1         0.1494011240E-02      0.1691793918E-01
          0                26           1            31   31     2       0.1722915178E-04      31   30    1         0.1331087192E-02      0.1530810436E-01
          0                27           1            35   33     2       0.1450205564E-04      30   31    1         0.1219364854E-02      0.1387190735E-01
          0                28           1            31   31     2       0.1401739226E-04      31   30    1         0.1091544482E-02      0.1255743657E-01
          0                29           1            35   33     2       0.1199384225E-04      30   31    1         0.9960251414E-03      0.1137923771E-01
          0                30           1            32   32     2       0.1143958751E-04      30   31    1         0.8954242619E-03      0.1030461260E-01
          0                31           1            35   31     2       0.9900320970E-05      30   31    1         0.8141484173E-03      0.9337750802E-02

    ------------------------------------------------
       NWT REQUIRED           31 OUTER ITERATIONS 
       AND A TOTAL OF         32 INNER ITERATIONS.
    ------------------------------------------------

 OUTPUT CONTROL FOR STRESS PERIOD    1   TIME STEP  174
    SAVE HEAD FOR ALL LAYERS
 SOLVING FOR ZETA FOR LAYER     1 ZONE     2

     953 UPPER PART EQS.       972 LOWER PART EQS.    BAND WIDTH + 1 =   44
 STRESS PERIOD=  1 TIMESTEP=174 LAYER=  1 ZONE=  2 ACTIVE CELLS= 1925 NUMBER OF EQUATIONS=    1925
 UBUDSV SAVING "      ZETASRF  1" ON UNIT 55 AT TIME STEP174, STRESS PERIOD    1

 HEAD WILL BE SAVED ON UNIT   51 AT END OF TIME STEP  174, STRESS PERIOD    1
 
 SOLVING FOR HEAD 
                                                   Max.-Head-Change                         Max.-Flux-Residual
  Residual-Control   Outer-Iter.   Inner-Iter.     Column Row Layer    Maximum-Head-Change  Column Row Layer    Maximum-Flux-Residual          L2-NORM 
          0                 1           2            32   53     1       0.2407273869E-02      39   53    1         0.1360972013E+01      0.1311023478E+02
          0                 2           1            32   48     2      -0.2962446001E-03      50   31    1        -0.2259858942E-01      0.2546695649E+00
          0                 3           1            48   32     2      -0.1254221173E-03      48   33    1        -0.1122448835E-01      0.1731439527E+00
          0                 4           1            45   31     2      -0.1454729080E-03      50   31    1        -0.8089201357E-02      0.1398492016E+00
          0                 5           1            41   35     2      -0.9235979140E-04      48   33    1        -0.6777767909E-02      0.1212948586E+00
          0                 6           1            37   35     2      -0.1114482828E-03      32   32    2        -0.7180811225E-02      0.1072261821E+00
          0                 7           1            33   33     2      -0.8063631964E-04      33   31    2        -0.7441175159E-02      0.9650952105E-01
          0                 8           1            32   31     2      -0.9896434026E-04      32   32    2        -0.6997311632E-02      0.8651273572E-01
          0                 9           1            31   31     2      -0.7212282739E-04      33   31    2        -0.6725464849E-02      0.7834078659E-01
          0                10           1            30   30     2      -0.8190398298E-04      32   32    2        -0.6060266255E-02      0.7048556403E-01
                                                   Max.-Head-Change                         Max.-Flux-Residual
  Residual-Control   Outer-Iter.   Inner-Iter.     Column Row Layer    Maximum-Head-Change  Column Row Layer    Maximum-Flux-Residual          L2-NORM 
          0                11           1            32   32     2      -0.6182593015E-04      33   31    2        -0.5674006102E-02      0.6388568097E-01
          0                12           1            30   30     2      -0.6623110608E-04      32   32    2        -0.5070009676E-02      0.5760238454E-01
          0                13           1            32   32     2      -0.5214753500E-04      33   31    2        -0.4678404723E-02      0.5220837315E-01
          0                14           1            30   30     2      -0.5324233159E-04      32   32    2        -0.4193764203E-02      0.4715005429E-01
          0                15           1            33   31     2      -0.4366650622E-04      33   31    2        -0.3825436843E-02      0.4272607113E-01
          0                16           1            30   30     2      -0.4281101244E-04      32   32    2        -0.3456047573E-02      0.3863659081E-01
          0                17           1            33   31     2      -0.3647611970E-04      33   31    2        -0.3118983107E-02      0.3500218387E-01
          0                18           1            30   30     2      -0.3449663573E-04      32   32    2        -0.2844800733E-02      0.3168489063E-01
          0                19           1            33   31     2      -0.3040085861E-04      33   31    2        -0.2541275451E-02      0.2869621551E-01
          0                20           1            31   31     2      -0.2787939902E-04      32   32    2        -0.2340825872E-02      0.2599802928E-01
                                                   Max.-Head-Change                         Max.-Flux-Residual
  Residual-Control   Outer-Iter.   Inner-Iter.     Column Row Layer    Maximum-Head-Change  Column Row Layer    Maximum-Flux-Residual          L2-NORM 
          0                21           1            34   32     2      -0.2535727232E-04      33   31    2        -0.2071012432E-02      0.2353895299E-01
          0                22           1            31   31     2      -0.2260560650E-04      32   32    2        -0.1925798767E-02      0.2133958005E-01
          0                23           1            34   32     2      -0.2112724282E-04      33   31    2        -0.1688674698E-02      0.1931570591E-01
          0                24           1            31   31     2      -0.1837432770E-04      32   32    2        -0.1584060157E-02      0.1751985617E-01
          0                25           1            34   32     2      -0.1757495613E-04      33   31    2        -0.1377766027E-02      0.1585403631E-01
          0                26           1            31   31     2      -0.1496753084E-04      32   32    2        -0.1302662116E-02      0.1438567393E-01
          0                27           1            35   33     2      -0.1460833563E-04      33   31    2        -0.1124760854E-02      0.1301476319E-01
          0                28           1            31   33     2      -0.1222259485E-04      32   32    2        -0.1070927800E-02      0.1181294634E-01
          0                29           1            35   33     2      -0.1216479637E-04      32   32    2        -0.9191400926E-03      0.1068494545E-01
          0                30           1            31   33     2      -0.1000058188E-04      32   32    2        -0.8801635770E-03      0.9700492662E-02
                                                   Max.-Head-Change                         Max.-Flux-Residual
  Residual-Control   Outer-Iter.   Inner-Iter.     Column Row Layer    Maximum-Head-Change  Column Row Layer    Maximum-Flux-Residual          L2-NORM 
          0                31           1            35   33     2      -0.1011456857E-04      32   32    2        -0.7517852151E-03      0.8772581899E-02
          0                32           1            31   33     2      -0.8192451476E-05      32   32    2        -0.7231691120E-03      0.7965664941E-02

    ------------------------------------------------
       NWT REQUIRED           32 OUTER ITERATIONS 
       AND A TOTAL OF         33 INNER ITERATIONS.
    ------------------------------------------------

 OUTPUT CONTROL FOR STRESS PERIOD    1   TIME STEP  175
    SAVE HEAD FOR ALL LAYERS
 SOLVING FOR ZETA FOR LAYER     1 ZONE     2

    1001 UPPER PART EQS.       996 LOWER PART EQS.    BAND WIDTH + 1 =   46
 STRESS PERIOD=  1 TIMESTEP=175 LAYER=  1 ZONE=  2 ACTIVE CELLS= 1997 NUMBER OF EQUATIONS=    1997
 UBUDSV SAVING "      ZETASRF  1" ON UNIT 55 AT TIME STEP175, STRESS PERIOD    1

 HEAD WILL BE SAVED ON UNIT   51 AT END OF TIME STEP  175, STRESS PERIOD    1
 
 SOLVING FOR HEAD 
                                                   Max.-Head-Change                         Max.-Flux-Residual
  Residual-Control   Outer-Iter.   Inner-Iter.     Column Row Layer    Maximum-Head-Change  Column Row Layer    Maximum-Flux-Residual          L2-NORM 
          0                 1           2            20   53     1       0.1524048433E-02       9   20    1         0.1223316366E+01      0.7038092144E+01
          0                 2           1            30   14     2       0.2365128780E-04      50   43    1        -0.2741811487E-02      0.2832290929E-01
          0                 3           1            30   14     2       0.1683289695E-04      30   14    2         0.1038587245E-02      0.1262440092E-01
          0                 4           1            30   14     2       0.6171392803E-05      49   32    1         0.4974022768E-03      0.6977424115E-02

    ------------------------------------------------
       NWT REQUIRED            4 OUTER ITERATIONS 
       AND A TOTAL OF          5 INNER ITERATIONS.
    ------------------------------------------------

 OUTPUT CONTROL FOR STRESS PERIOD    1   TIME STEP  176
    SAVE HEAD FOR ALL LAYERS
 SOLVING FOR ZETA FOR LAYER     1 ZONE     2

     989 UPPER PART EQS.       988 LOWER PART EQS.    BAND WIDTH + 1 =   44
 STRESS PERIOD=  1 TIMESTEP=176 LAYER=  1 ZONE=  2 ACTIVE CELLS= 1977 NUMBER OF EQUATIONS=    1977
 UBUDSV SAVING "      ZETASRF  1" ON UNIT 55 AT TIME STEP176, STRESS PERIOD    1

 HEAD WILL BE SAVED ON UNIT   51 AT END OF TIME STEP  176, STRESS PERIOD    1
 
 SOLVING FOR HEAD 
                                                   Max.-Head-Change                         Max.-Flux-Residual
  Residual-Control   Outer-Iter.   Inner-Iter.     Column Row Layer    Maximum-Head-Change  Column Row Layer    Maximum-Flux-Residual          L2-NORM 
          0                 1           2            38   52     1       0.1950098311E-02      25    9    1        -0.1424582417E+01      0.1025062058E+02
          0                 2           1            34   14     2       0.1124575579E-03      50   23    1         0.8011866517E-02      0.1108874478E+00
          0                 3           1            30   16     2       0.5227527823E-04      27   50    1         0.4626652180E-02      0.7284398677E-01
          0                 4           1            26   18     2       0.5855010439E-04      50   23    1         0.3069370319E-02      0.5779802839E-01
          0                 5           1            23   22     1       0.3360726239E-04      48   25    1         0.2837194879E-02      0.4905397973E-01
          0                 6           1            27   22     1       0.4756943124E-04      32   37    1         0.2210086032E-02      0.4293780266E-01
          0                 7           1            28   26     1       0.2901004070E-04      32   37    1         0.2389504421E-02      0.3841300984E-01
          0                 8           1            30   29     1       0.4253333578E-04      32   37    1         0.2145028134E-02      0.3420827274E-01
          0                 9           1            31   29     2       0.2573330159E-04      32   37    1         0.2175669504E-02      0.3096949801E-01
          0                10           1            31   30     1       0.3584594397E-04      32   37    1         0.1861612982E-02      0.2766489241E-01
                                                   Max.-Head-Change                         Max.-Flux-Residual
  Residual-Control   Outer-Iter.   Inner-Iter.     Column Row Layer    Maximum-Head-Change  Column Row Layer    Maximum-Flux-Residual          L2-NORM 
          0                11           1            31   30     1       0.2197820414E-04      32   37    1         0.1835947428E-02      0.2511053134E-01
          0                12           1            31   30     1       0.2900003217E-04      32   37    1         0.1558050685E-02      0.2248336392E-01
          0                13           1            31   30     1       0.1839244412E-04      32   37    1         0.1513268633E-02      0.2042156042E-01
          0                14           1            31   30     1       0.2328738386E-04      32   37    1         0.1287353388E-02      0.1832244850E-01
          0                15           1            30   31     1       0.1525248312E-04      32   37    1         0.1238747359E-02      0.1664661022E-01
          0                16           1            31   31     2       0.1876254741E-04      32   37    1         0.1058402833E-02      0.1495924765E-01
          0                17           1            30   31     1       0.1259243296E-04      32   37    1         0.1012387777E-02      0.1359313759E-01
          0                18           1            31   31     2       0.1517755908E-04      32   37    1         0.8683249557E-03      0.1222936300E-01
          0                19           1            30   31     1       0.1036087371E-04      32   37    1         0.8274692628E-03      0.1111404387E-01
          0                20           1            31   31     2       0.1232844917E-04      32   37    1         0.7116460881E-03      0.1000691111E-01
          0                21           1            30   31     1       0.8502654885E-05      32   37    1         0.6767415314E-03      0.9095560719E-02

    ------------------------------------------------
       NWT REQUIRED           21 OUTER ITERATIONS 
       AND A TOTAL OF         22 INNER ITERATIONS.
    ------------------------------------------------

 OUTPUT CONTROL FOR STRESS PERIOD    1   TIME STEP  177
    SAVE HEAD FOR ALL LAYERS
 SOLVING FOR ZETA FOR LAYER     1 ZONE     2

    1001 UPPER PART EQS.       988 LOWER PART EQS.    BAND WIDTH + 1 =   46
 STRESS PERIOD=  1 TIMESTEP=177 LAYER=  1 ZONE=  2 ACTIVE CELLS= 1989 NUMBER OF EQUATIONS=    1989
 UBUDSV SAVING "      ZETASRF  1" ON UNIT 55 AT TIME STEP177, STRESS PERIOD    1

 HEAD WILL BE SAVED ON UNIT   51 AT END OF TIME STEP  177, STRESS PERIOD    1
 
 SOLVING FOR HEAD 
                                                   Max.-Head-Change                         Max.-Flux-Residual
  Residual-Control   Outer-Iter.   Inner-Iter.     Column Row Layer    Maximum-Head-Change  Column Row Layer    Maximum-Flux-Residual          L2-NORM 
          0                 1           2            31    9     1      -0.2498320002E-02      29    9    1        -0.1493460533E+01      0.1175400904E+02
          0                 2           1            46   32     2       0.6538683205E-04      50   31    1         0.1007300420E-01      0.7455289467E-01
          0                 3           1            15   31     2       0.2632779117E-04      48   33    1         0.3234445791E-02      0.2955096273E-01
          0                 4           1            30   16     2       0.1639584151E-04      50   31    1         0.1545684163E-02      0.1620229351E-01
          0                 5           1            30   18     2       0.1013848598E-04      48   33    1         0.9268956787E-03      0.1139755147E-01
          0                 6           1            29   20     1       0.1068124423E-04      24   25    1         0.6552228580E-03      0.9445436878E-02
          0                 7           1            28   25     1       0.7964513367E-05      24   25    1         0.5989565304E-03      0.8336953424E-02

    ------------------------------------------------
       NWT REQUIRED            7 OUTER ITERATIONS 
       AND A TOTAL OF          8 INNER ITERATIONS.
    ------------------------------------------------

 OUTPUT CONTROL FOR STRESS PERIOD    1   TIME STEP  178
    SAVE HEAD FOR ALL LAYERS
 SOLVING FOR ZETA FOR LAYER     1 ZONE     2

     977 UPPER PART EQS.       988 LOWER PART EQS.    BAND WIDTH + 1 =   44
 STRESS PERIOD=  1 TIMESTEP=178 LAYER=  1 ZONE=  2 ACTIVE CELLS= 1965 NUMBER OF EQUATIONS=    1965
 UBUDSV SAVING "      ZETASRF  1" ON UNIT 55 AT TIME STEP178, STRESS PERIOD    1

 HEAD WILL BE SAVED ON UNIT   51 AT END OF TIME STEP  178, STRESS PERIOD    1
 
 SOLVING FOR HEAD 
                                                   Max.-Head-Change                         Max.-Flux-Residual
  Residual-Control   Outer-Iter.   Inner-Iter.     Column Row Layer    Maximum-Head-Change  Column Row Layer    Maximum-Flux-Residual          L2-NORM 
          0                 1           2            31   53     1       0.2503288964E-02      33   53    1         0.1374813505E+01      0.8823034331E+01
          0                 2           1            30   48     2      -0.1371140206E-03      50   31    1        -0.1297935240E-01      0.1091783495E+00
          0                 3           1            47   32     1      -0.4993090319E-04      48   33    1        -0.4985816140E-02      0.6072136134E-01
          0                 4           1            45   31     2      -0.5616717384E-04      50   31    1        -0.3306781518E-02      0.4555220733E-01
          0                 5           1            41   33     2      -0.3010012286E-04      48   33    1        -0.2629414547E-02      0.3862817260E-01
          0                 6           1            37   35     2      -0.4165591999E-04      41   43    2        -0.1860687420E-02      0.3436362992E-01
          0                 7           1            32   34     2      -0.2597077441E-04      48   33    1        -0.2083085005E-02      0.3083717969E-01
          0                 8           1            32   33     1      -0.3476410321E-04      41   43    2        -0.1414089168E-02      0.2766551420E-01
          0                 9           1            32   32     2      -0.2241190664E-04      48   33    1        -0.1718064796E-02      0.2494415189E-01
          0                10           1            31   32     1      -0.2822211256E-04      41   43    2        -0.1100214248E-02      0.2246084667E-01
                                                   Max.-Head-Change                         Max.-Flux-Residual
  Residual-Control   Outer-Iter.   Inner-Iter.     Column Row Layer    Maximum-Head-Change  Column Row Layer    Maximum-Flux-Residual          L2-NORM 
          0                11           1            32   32     2      -0.1881844642E-04      48   33    1        -0.1399022751E-02      0.2028398031E-01
          0                12           1            31   32     1      -0.2267720841E-04      38   34    2        -0.8899785366E-03      0.1830262047E-01
          0                13           1            32   32     2      -0.1565942205E-04      48   33    1        -0.1123469983E-02      0.1654534393E-01
          0                14           1            31   32     1      -0.1819475005E-04      38   34    2        -0.7404160581E-03      0.1494888468E-01
          0                15           1            32   32     2      -0.1300081450E-04      48   33    1        -0.8922624715E-03      0.1352380152E-01
          0                16           1            31   32     1      -0.1461139976E-04      38   34    2        -0.6151443204E-03      0.1223065127E-01
          0                17           1            32   32     2      -0.1079212747E-04      48   33    1        -0.7030261622E-03      0.1107128179E-01
          0                18           1            31   32     1      -0.1175299469E-04      39   37    2        -0.5122411258E-03      0.1002025050E-01
          0                19           1            33   31     2      -0.8971309314E-05      48   33    1        -0.5509931067E-03      0.9074656995E-02

    ------------------------------------------------
       NWT REQUIRED           19 OUTER ITERATIONS 
       AND A TOTAL OF         20 INNER ITERATIONS.
    ------------------------------------------------

 OUTPUT CONTROL FOR STRESS PERIOD    1   TIME STEP  179
    SAVE HEAD FOR ALL LAYERS
 SOLVING FOR ZETA FOR LAYER     1 ZONE     2

    1009 UPPER PART EQS.       988 LOWER PART EQS.    BAND WIDTH + 1 =   48
 STRESS PERIOD=  1 TIMESTEP=179 LAYER=  1 ZONE=  2 ACTIVE CELLS= 1997 NUMBER OF EQUATIONS=    1997
 UBUDSV SAVING "      ZETASRF  1" ON UNIT 55 AT TIME STEP179, STRESS PERIOD    1

 HEAD WILL BE SAVED ON UNIT   51 AT END OF TIME STEP  179, STRESS PERIOD    1
 
 SOLVING FOR HEAD 
                                                   Max.-Head-Change                         Max.-Flux-Residual
  Residual-Control   Outer-Iter.   Inner-Iter.     Column Row Layer    Maximum-Head-Change  Column Row Layer    Maximum-Flux-Residual          L2-NORM 
          0                 1           2            46   53     1       0.1195699457E-02      16    9    1         0.9324109436E+00      0.5742685145E+01
          0                 2           1            31   13     2       0.2340558986E-04      50   47    1        -0.2805183837E-02      0.2746473897E-01
          0                 3           1            30   14     2       0.1283370719E-04      48   49    1        -0.9108537393E-03      0.1327660811E-01
          0                 4           1            31   32     1      -0.7441377225E-05      50   15    1        -0.5760718572E-03      0.7328428696E-02

    ------------------------------------------------
       NWT REQUIRED            4 OUTER ITERATIONS 
       AND A TOTAL OF          5 INNER ITERATIONS.
    ------------------------------------------------

 OUTPUT CONTROL FOR STRESS PERIOD    1   TIME STEP  180
    SAVE HEAD FOR ALL LAYERS
 SOLVING FOR ZETA FOR LAYER     1 ZONE     2

     989 UPPER PART EQS.       996 LOWER PART EQS.    BAND WIDTH + 1 =   44
 STRESS PERIOD=  1 TIMESTEP=180 LAYER=  1 ZONE=  2 ACTIVE CELLS= 1985 NUMBER OF EQUATIONS=    1985
 UBUDSV SAVING "      ZETASRF  1" ON UNIT 55 AT TIME STEP180, STRESS PERIOD    1

 HEAD WILL BE SAVED ON UNIT   51 AT END OF TIME STEP  180, STRESS PERIOD    1
 
 SOLVING FOR HEAD 
                                                   Max.-Head-Change                         Max.-Flux-Residual
  Residual-Control   Outer-Iter.   Inner-Iter.     Column Row Layer    Maximum-Head-Change  Column Row Layer    Maximum-Flux-Residual          L2-NORM 
          0                 1           2            35    9     1      -0.1569208069E-02      27    9    1        -0.1471141372E+01      0.6738504370E+01
          0                 2           1            30   14     2       0.7596700775E-04      31   13    2         0.4606692453E-02      0.6002532488E-01
          0                 3           1            32   16     2       0.2565704164E-04      30   51    1         0.3174269085E-02      0.3415079003E-01
          0                 4           1            30   16     2       0.2943705557E-04      50   35    1         0.1392715623E-02      0.2514130148E-01
          0                 5           1            28   19     1       0.1600267975E-04      30   51    1         0.1281267512E-02      0.2075662359E-01
          0                 6           1            25   21     2       0.1954798639E-04      39   34    1         0.9377775967E-03      0.1800455230E-01
          0                 7           1            28   24     1       0.1370673959E-04      39   34    1         0.9049771978E-03      0.1609015990E-01
          0                 8           1            28   25     1       0.1520033295E-04      39   34    1         0.8625158454E-03      0.1436469649E-01
          0                 9           1            30   27     1       0.1249628237E-04      39   34    1         0.8005932453E-03      0.1299992948E-01
          0                10           1            30   29     1       0.1239689170E-04      39   34    1         0.7512397166E-03      0.1171096759E-01
                                                   Max.-Head-Change                         Max.-Flux-Residual
  Residual-Control   Outer-Iter.   Inner-Iter.     Column Row Layer    Maximum-Head-Change  Column Row Layer    Maximum-Flux-Residual          L2-NORM 
          0                11           1            30   29     1       0.1090820322E-04      39   34    1         0.6794700700E-03      0.1061234384E-01
          0                12           1            31   29     2       0.1010017490E-04      39   34    1         0.6353442926E-03      0.9596864860E-02
          0                13           1            31   30     1       0.9247531813E-05      39   34    1         0.5678881594E-03      0.8693847676E-02

    ------------------------------------------------
       NWT REQUIRED           13 OUTER ITERATIONS 
       AND A TOTAL OF         14 INNER ITERATIONS.
    ------------------------------------------------

 OUTPUT CONTROL FOR STRESS PERIOD    1   TIME STEP  181
    SAVE HEAD FOR ALL LAYERS
 SOLVING FOR ZETA FOR LAYER     1 ZONE     2

    1001 UPPER PART EQS.      1004 LOWER PART EQS.    BAND WIDTH + 1 =   46
 STRESS PERIOD=  1 TIMESTEP=181 LAYER=  1 ZONE=  2 ACTIVE CELLS= 2005 NUMBER OF EQUATIONS=    2005
 UBUDSV SAVING "      ZETASRF  1" ON UNIT 55 AT TIME STEP181, STRESS PERIOD    1

 HEAD WILL BE SAVED ON UNIT   51 AT END OF TIME STEP  181, STRESS PERIOD    1
 
 SOLVING FOR HEAD 
                                                   Max.-Head-Change                         Max.-Flux-Residual
  Residual-Control   Outer-Iter.   Inner-Iter.     Column Row Layer    Maximum-Head-Change  Column Row Layer    Maximum-Flux-Residual          L2-NORM 
          0                 1           2            27   53     1       0.1811665738E-02      35    9    1         0.1429826383E+01      0.6313331680E+01
          0                 2           1            46   14     2       0.6285933805E-04      50   15    1         0.4635561070E-02      0.5231812118E-01
          0                 3           1            48   15     1       0.1451305055E-04      49   15    2         0.2040150439E-02      0.2349778725E-01
          0                 4           1            45   15     2       0.1293033150E-04      50   15    1         0.8719254024E-03      0.1186895064E-01
          0                 5           1            47   14     1       0.4490938066E-05      47   14    1         0.5286125458E-03      0.6812434678E-02

    ------------------------------------------------
       NWT REQUIRED            5 OUTER ITERATIONS 
       AND A TOTAL OF          6 INNER ITERATIONS.
    ------------------------------------------------

 OUTPUT CONTROL FOR STRESS PERIOD    1   TIME STEP  182
    SAVE HEAD FOR ALL LAYERS
 SOLVING FOR ZETA FOR LAYER     1 ZONE     2

     989 UPPER PART EQS.       988 LOWER PART EQS.    BAND WIDTH + 1 =   44
 STRESS PERIOD=  1 TIMESTEP=182 LAYER=  1 ZONE=  2 ACTIVE CELLS= 1977 NUMBER OF EQUATIONS=    1977
 UBUDSV SAVING "      ZETASRF  1" ON UNIT 55 AT TIME STEP182, STRESS PERIOD    1

 HEAD WILL BE SAVED ON UNIT   51 AT END OF TIME STEP  182, STRESS PERIOD    1
 
 SOLVING FOR HEAD 
                                                   Max.-Head-Change                         Max.-Flux-Residual
  Residual-Control   Outer-Iter.   Inner-Iter.     Column Row Layer    Maximum-Head-Change  Column Row Layer    Maximum-Flux-Residual          L2-NORM 
          0                 1           2            53   48     1       0.9936351224E-03      48    9    1         0.7266775241E+00      0.3965767104E+01
          0                 2           1            47   49     2      -0.5106195175E-04      50   15    1        -0.4061714916E-02      0.4096038647E-01
          0                 3           1            46   46     2      -0.1270992108E-04      14   47    1        -0.1914323925E-02      0.1825325336E-01
          0                 4           1            45   47     2      -0.1268375999E-04      50   15    1        -0.7443075227E-03      0.1003975581E-01
          0                 5           1            44   44     2      -0.5197854866E-05      14   47    1        -0.4957243332E-03      0.6731931207E-02

    ------------------------------------------------
       NWT REQUIRED            5 OUTER ITERATIONS 
       AND A TOTAL OF          6 INNER ITERATIONS.
    ------------------------------------------------

 OUTPUT CONTROL FOR STRESS PERIOD    1   TIME STEP  183
    SAVE HEAD FOR ALL LAYERS
 SOLVING FOR ZETA FOR LAYER     1 ZONE     2

    1009 UPPER PART EQS.      1004 LOWER PART EQS.    BAND WIDTH + 1 =   46
 STRESS PERIOD=  1 TIMESTEP=183 LAYER=  1 ZONE=  2 ACTIVE CELLS= 2013 NUMBER OF EQUATIONS=    2013
 UBUDSV SAVING "      ZETASRF  1" ON UNIT 55 AT TIME STEP183, STRESS PERIOD    1

 HEAD WILL BE SAVED ON UNIT   51 AT END OF TIME STEP  183, STRESS PERIOD    1
 
 SOLVING FOR HEAD 
                                                   Max.-Head-Change                         Max.-Flux-Residual
  Residual-Control   Outer-Iter.   Inner-Iter.     Column Row Layer    Maximum-Head-Change  Column Row Layer    Maximum-Flux-Residual          L2-NORM 
          0                 1           1             9   13     1      -0.8394819455E-03      13    9    1        -0.6132414150E+00      0.3539146029E+01
          0                 2           1            47   14     1       0.8414902477E-04      53   12    1         0.3364148431E-01      0.3000172552E+00
          0                 3           1            16   15     1       0.4505843135E-04      50   51    1         0.3262954219E-02      0.3873005087E-01
          0                 4           1            18   16     2       0.1999603087E-04      53   12    1         0.1582876394E-02      0.2140428073E-01
          0                 5           1            18   17     1       0.1599925003E-04      12   49    1         0.9016131631E-03      0.1410762892E-01
          0                 6           1            20   18     2       0.8937240374E-05      47   14    1         0.6880189036E-03      0.1006130804E-01

    ------------------------------------------------
       NWT REQUIRED            6 OUTER ITERATIONS 
       AND A TOTAL OF          6 INNER ITERATIONS.
    ------------------------------------------------

 OUTPUT CONTROL FOR STRESS PERIOD    1   TIME STEP  184
    SAVE HEAD FOR ALL LAYERS
 SOLVING FOR ZETA FOR LAYER     1 ZONE     2

     989 UPPER PART EQS.       996 LOWER PART EQS.    BAND WIDTH + 1 =   44
 STRESS PERIOD=  1 TIMESTEP=184 LAYER=  1 ZONE=  2 ACTIVE CELLS= 1985 NUMBER OF EQUATIONS=    1985
 UBUDSV SAVING "      ZETASRF  1" ON UNIT 55 AT TIME STEP184, STRESS PERIOD    1

 HEAD WILL BE SAVED ON UNIT   51 AT END OF TIME STEP  184, STRESS PERIOD    1
 
 SOLVING FOR HEAD 
                                                   Max.-Head-Change                         Max.-Flux-Residual
  Residual-Control   Outer-Iter.   Inner-Iter.     Column Row Layer    Maximum-Head-Change  Column Row Layer    Maximum-Flux-Residual          L2-NORM 
          0                 1           1            49   53     1       0.8257236018E-03      13   53    1         0.6399824960E+00      0.3284536667E+01
          0                 2           1            32   32     2      -0.6808797308E-04      53   12    1        -0.3193059687E-01      0.2875625261E+00
          0                 3           1            47   49     2      -0.2807749844E-04      50   51    1        -0.2866807705E-02      0.2998861076E-01
          0                 4           1            31   15     2       0.1094294747E-04      53   12    1        -0.1203569969E-02      0.1313973970E-01
          0                 5           1            30   17     1       0.8560416602E-05      50   51    1        -0.5515249432E-03      0.7050451419E-02

    ------------------------------------------------
       NWT REQUIRED            5 OUTER ITERATIONS 
       AND A TOTAL OF          5 INNER ITERATIONS.
    ------------------------------------------------

 OUTPUT CONTROL FOR STRESS PERIOD    1   TIME STEP  185
    SAVE HEAD FOR ALL LAYERS
 SOLVING FOR ZETA FOR LAYER     1 ZONE     2

    1009 UPPER PART EQS.      1004 LOWER PART EQS.    BAND WIDTH + 1 =   46
 STRESS PERIOD=  1 TIMESTEP=185 LAYER=  1 ZONE=  2 ACTIVE CELLS= 2013 NUMBER OF EQUATIONS=    2013
 UBUDSV SAVING "      ZETASRF  1" ON UNIT 55 AT TIME STEP185, STRESS PERIOD    1

 HEAD WILL BE SAVED ON UNIT   51 AT END OF TIME STEP  185, STRESS PERIOD    1
 
 SOLVING FOR HEAD 
                                                   Max.-Head-Change                         Max.-Flux-Residual
  Residual-Control   Outer-Iter.   Inner-Iter.     Column Row Layer    Maximum-Head-Change  Column Row Layer    Maximum-Flux-Residual          L2-NORM 
          0                 1           2            52   47     1       0.1195921346E-02      15    9    1        -0.7953044055E+00      0.5321068315E+01
          0                 2           1            46   14     2       0.9794064731E-04      50   15    1         0.6520235605E-02      0.6837461716E-01
          0                 3           1            19   18     1       0.2840322542E-04      49   16    1         0.3644205209E-02      0.3658912410E-01
          0                 4           1            18   18     2       0.2928970497E-04      51   14    1         0.1750652888E-02      0.2488606837E-01
          0                 5           1            20   19     1       0.1342185749E-04      49   16    1         0.1536201412E-02      0.1862387110E-01
          0                 6           1            21   19     2       0.1631827217E-04      32   21    1         0.8691614373E-03      0.1503471680E-01
          0                 7           1            24   21     1       0.9495662196E-05      32   21    1         0.8199545229E-03      0.1284965311E-01

    ------------------------------------------------
       NWT REQUIRED            7 OUTER ITERATIONS 
       AND A TOTAL OF          8 INNER ITERATIONS.
    ------------------------------------------------

 OUTPUT CONTROL FOR STRESS PERIOD    1   TIME STEP  186
    SAVE HEAD FOR ALL LAYERS
 SOLVING FOR ZETA FOR LAYER     1 ZONE     2

     981 UPPER PART EQS.       988 LOWER PART EQS.    BAND WIDTH + 1 =   44
 STRESS PERIOD=  1 TIMESTEP=186 LAYER=  1 ZONE=  2 ACTIVE CELLS= 1969 NUMBER OF EQUATIONS=    1969
 UBUDSV SAVING "      ZETASRF  1" ON UNIT 55 AT TIME STEP186, STRESS PERIOD    1

 HEAD WILL BE SAVED ON UNIT   51 AT END OF TIME STEP  186, STRESS PERIOD    1
 
 SOLVING FOR HEAD 
                                                   Max.-Head-Change                         Max.-Flux-Residual
  Residual-Control   Outer-Iter.   Inner-Iter.     Column Row Layer    Maximum-Head-Change  Column Row Layer    Maximum-Flux-Residual          L2-NORM 
          0                 1           2            47   53     1       0.1147074702E-02      53   15    1         0.7638288232E+00      0.4332412572E+01
          0                 2           1            46   48     2      -0.9377191464E-04      50   15    1        -0.6606651677E-02      0.6468326568E-01
          0                 3           1            15   46     1      -0.2118570484E-04      11   10    1         0.2504990813E-02      0.2922534667E-01
          0                 4           1            44   46     2      -0.2212817181E-04      50   15    1        -0.1429610794E-02      0.1719499448E-01
          0                 5           1            44   44     2      -0.8509648037E-05      48   17    1        -0.8791098396E-03      0.1166028103E-01

    ------------------------------------------------
       NWT REQUIRED            5 OUTER ITERATIONS 
       AND A TOTAL OF          6 INNER ITERATIONS.
    ------------------------------------------------

 OUTPUT CONTROL FOR STRESS PERIOD    1   TIME STEP  187
    SAVE HEAD FOR ALL LAYERS
 SOLVING FOR ZETA FOR LAYER     1 ZONE     2

    1009 UPPER PART EQS.      1004 LOWER PART EQS.    BAND WIDTH + 1 =   46
 STRESS PERIOD=  1 TIMESTEP=187 LAYER=  1 ZONE=  2 ACTIVE CELLS= 2013 NUMBER OF EQUATIONS=    2013
 UBUDSV SAVING "      ZETASRF  1" ON UNIT 55 AT TIME STEP187, STRESS PERIOD    1

 HEAD WILL BE SAVED ON UNIT   51 AT END OF TIME STEP  187, STRESS PERIOD    1
 
 SOLVING FOR HEAD 
                                                   Max.-Head-Change                         Max.-Flux-Residual
  Residual-Control   Outer-Iter.   Inner-Iter.     Column Row Layer    Maximum-Head-Change  Column Row Layer    Maximum-Flux-Residual          L2-NORM 
          0                 1           1             9   13     1      -0.8577491633E-03      13    9    1        -0.6341127519E+00      0.3456694812E+01
          0                 2           1            47   14     1       0.7931845378E-04      53   12    1         0.3601375980E-01      0.2888283819E+00
          0                 3           1            15   14     1       0.3726492237E-04      50   51    1         0.3202685812E-02      0.3348091557E-01
          0                 4           1            16   16     2       0.1517971820E-04      53   12    1         0.1436167415E-02      0.1640497284E-01
          0                 5           1            18   17     1       0.1058788816E-04      51   14    1         0.7890577592E-03      0.1002070453E-01
          0                 6           1            32   33     1      -0.5996475646E-05      47   14    1         0.5273374859E-03      0.6494561757E-02

    ------------------------------------------------
       NWT REQUIRED            6 OUTER ITERATIONS 
       AND A TOTAL OF          6 INNER ITERATIONS.
    ------------------------------------------------

 OUTPUT CONTROL FOR STRESS PERIOD    1   TIME STEP  188
    SAVE HEAD FOR ALL LAYERS
 SOLVING FOR ZETA FOR LAYER     1 ZONE     2

     989 UPPER PART EQS.       996 LOWER PART EQS.    BAND WIDTH + 1 =   44
 STRESS PERIOD=  1 TIMESTEP=188 LAYER=  1 ZONE=  2 ACTIVE CELLS= 1985 NUMBER OF EQUATIONS=    1985
 UBUDSV SAVING "      ZETASRF  1" ON UNIT 55 AT TIME STEP188, STRESS PERIOD    1

 HEAD WILL BE SAVED ON UNIT   51 AT END OF TIME STEP  188, STRESS PERIOD    1
 
 SOLVING FOR HEAD 
                                                   Max.-Head-Change                         Max.-Flux-Residual
  Residual-Control   Outer-Iter.   Inner-Iter.     Column Row Layer    Maximum-Head-Change  Column Row Layer    Maximum-Flux-Residual          L2-NORM 
          0                 1           1            49   53     1       0.8370592634E-03      13   53    1         0.6430430650E+00      0.3209929783E+01
          0                 2           1            32   32     2      -0.6942275154E-04      53   12    1        -0.3357914514E-01      0.2794191767E+00
          0                 3           1            47   49     2      -0.3400510728E-04      50   51    1        -0.3034188224E-02      0.3148755852E-01
          0                 4           1            46   47     1      -0.1198678274E-04      53   12    1        -0.1375752589E-02      0.1570952636E-01
          0                 5           1            44   46     2      -0.1083872882E-04      50   51    1        -0.6650398621E-03      0.1048745640E-01
          0                 6           1            34   37     1      -0.7414552807E-05      50   13    1         0.4111414055E-03      0.8430930365E-02

    ------------------------------------------------
       NWT REQUIRED            6 OUTER ITERATIONS 
       AND A TOTAL OF          6 INNER ITERATIONS.
    ------------------------------------------------

 OUTPUT CONTROL FOR STRESS PERIOD    1   TIME STEP  189
    SAVE HEAD FOR ALL LAYERS
 SOLVING FOR ZETA FOR LAYER     1 ZONE     2

    1009 UPPER PART EQS.      1004 LOWER PART EQS.    BAND WIDTH + 1 =   46
 STRESS PERIOD=  1 TIMESTEP=189 LAYER=  1 ZONE=  2 ACTIVE CELLS= 2013 NUMBER OF EQUATIONS=    2013
 UBUDSV SAVING "      ZETASRF  1" ON UNIT 55 AT TIME STEP189, STRESS PERIOD    1

 HEAD WILL BE SAVED ON UNIT   51 AT END OF TIME STEP  189, STRESS PERIOD    1
 
 SOLVING FOR HEAD 
                                                   Max.-Head-Change                         Max.-Flux-Residual
  Residual-Control   Outer-Iter.   Inner-Iter.     Column Row Layer    Maximum-Head-Change  Column Row Layer    Maximum-Flux-Residual          L2-NORM 
          0                 1           1            32   30     2      -0.7373145123E-03      10   10    1        -0.4278749220E+00      0.2648457452E+01
          0                 2           1            30   30     2      -0.6169950010E-04      53   12    1         0.3544365046E-01      0.2648443470E+00
          0                 3           1            16   15     1       0.2371200146E-04      50   51    1         0.1996788661E-02      0.2485486720E-01
          0                 4           1            31   32     1      -0.1496002554E-04       9   12    1         0.9528197267E-03      0.1301771732E-01
          0                 5           1            31   33     2      -0.1371269060E-04      32   32    2        -0.5855097311E-03      0.9067627439E-02
          0                 6           1            33   34     1      -0.8595379582E-05      32   32    2        -0.4519284320E-03      0.6936189085E-02

    ------------------------------------------------
       NWT REQUIRED            6 OUTER ITERATIONS 
       AND A TOTAL OF          6 INNER ITERATIONS.
    ------------------------------------------------

 OUTPUT CONTROL FOR STRESS PERIOD    1   TIME STEP  190
    SAVE HEAD FOR ALL LAYERS
 SOLVING FOR ZETA FOR LAYER     1 ZONE     2

     996 UPPER PART EQS.       996 LOWER PART EQS.    BAND WIDTH + 1 =   45
 STRESS PERIOD=  1 TIMESTEP=190 LAYER=  1 ZONE=  2 ACTIVE CELLS= 1992 NUMBER OF EQUATIONS=    1992
 UBUDSV SAVING "      ZETASRF  1" ON UNIT 55 AT TIME STEP190, STRESS PERIOD    1

 HEAD WILL BE SAVED ON UNIT   51 AT END OF TIME STEP  190, STRESS PERIOD    1
 
 SOLVING FOR HEAD 
                                                   Max.-Head-Change                         Max.-Flux-Residual
  Residual-Control   Outer-Iter.   Inner-Iter.     Column Row Layer    Maximum-Head-Change  Column Row Layer    Maximum-Flux-Residual          L2-NORM 
          0                 1           2            31   31     2       0.1059958854E-02      31   31    2         0.1257238938E+01      0.4445711154E+01
          0                 2           1            16   15     1       0.2585585705E-04      28   32    2        -0.4103092753E-02      0.2906652151E-01
          0                 3           1            32   32     2      -0.1549625686E-04      32   32    2        -0.1790845743E-02      0.1437586557E-01
          0                 4           1            28   32     2      -0.1427194059E-04      28   32    2        -0.1514438472E-02      0.9217237716E-02
          0                 5           1            32   32     2      -0.9489593653E-05      32   32    2        -0.9901806804E-03      0.6540589288E-02

    ------------------------------------------------
       NWT REQUIRED            5 OUTER ITERATIONS 
       AND A TOTAL OF          6 INNER ITERATIONS.
    ------------------------------------------------

 OUTPUT CONTROL FOR STRESS PERIOD    1   TIME STEP  191
    SAVE HEAD FOR ALL LAYERS
 SOLVING FOR ZETA FOR LAYER     1 ZONE     2

     980 UPPER PART EQS.       980 LOWER PART EQS.    BAND WIDTH + 1 =   45
 STRESS PERIOD=  1 TIMESTEP=191 LAYER=  1 ZONE=  2 ACTIVE CELLS= 1960 NUMBER OF EQUATIONS=    1960
 SOLVING FOR ZETA FOR LAYER     2 ZONE     2

       1 UPPER PART EQS.         1 LOWER PART EQS.    BAND WIDTH + 1 =*****
 STRESS PERIOD=  1 TIMESTEP=191 LAYER=  2 ZONE=  2 ACTIVE CELLS=    1 NUMBER OF EQUATIONS=       1
 UBUDSV SAVING "      ZETASRF  1" ON UNIT 55 AT TIME STEP191, STRESS PERIOD    1

 HEAD WILL BE SAVED ON UNIT   51 AT END OF TIME STEP  191, STRESS PERIOD    1
 
 SOLVING FOR HEAD 
                                                   Max.-Head-Change                         Max.-Flux-Residual
  Residual-Control   Outer-Iter.   Inner-Iter.     Column Row Layer    Maximum-Head-Change  Column Row Layer    Maximum-Flux-Residual          L2-NORM 
          0                 1           2            48   53     1       0.1042872433E-02      31   31    2        -0.1396749530E+01      0.5486288621E+01
          0                 2           1            32   30     2       0.6308377885E-04      28   32    2         0.6715160726E-02      0.4735951739E-01
          0                 3           1            32   31     1       0.1826585668E-04      31   31    2         0.2698369825E-02      0.2412757712E-01
          0                 4           1            43   44     1      -0.1609855177E-04      33   29    2         0.1107959466E-02      0.1637040779E-01
          0                 5           1            42   44     2      -0.9957027294E-05      33   29    2        -0.8628828830E-03      0.1225390290E-01

    ------------------------------------------------
       NWT REQUIRED            5 OUTER ITERATIONS 
       AND A TOTAL OF          6 INNER ITERATIONS.
    ------------------------------------------------

 OUTPUT CONTROL FOR STRESS PERIOD    1   TIME STEP  192
    SAVE HEAD FOR ALL LAYERS
 SOLVING FOR ZETA FOR LAYER     1 ZONE     2

     964 UPPER PART EQS.       964 LOWER PART EQS.    BAND WIDTH + 1 =   41
 STRESS PERIOD=  1 TIMESTEP=192 LAYER=  1 ZONE=  2 ACTIVE CELLS= 1928 NUMBER OF EQUATIONS=    1928
 SOLVING FOR ZETA FOR LAYER     2 ZONE     2

      21 UPPER PART EQS.        16 LOWER PART EQS.    BAND WIDTH + 1 =    8
 STRESS PERIOD=  1 TIMESTEP=192 LAYER=  2 ZONE=  2 ACTIVE CELLS=   37 NUMBER OF EQUATIONS=      37
 UBUDSV SAVING "      ZETASRF  1" ON UNIT 55 AT TIME STEP192, STRESS PERIOD    1

 HEAD WILL BE SAVED ON UNIT   51 AT END OF TIME STEP  192, STRESS PERIOD    1
 
 SOLVING FOR HEAD 
                                                   Max.-Head-Change                         Max.-Flux-Residual
  Residual-Control   Outer-Iter.   Inner-Iter.     Column Row Layer    Maximum-Head-Change  Column Row Layer    Maximum-Flux-Residual          L2-NORM 
          0                 1           1            26   32     2      -0.9750413059E-03      29   35    2        -0.6241524928E+00      0.4174512863E+01
          0                 2           1            31   32     1       0.2446319211E-03      32   32    2         0.3238254229E-01      0.3117010987E+00
          0                 3           1            33   31     2       0.9589536051E-04      28   32    2         0.9285877199E-02      0.5939386068E-01
          0                 4           1            32   32     2       0.2933480745E-04      32   32    2         0.3966009151E-02      0.2932757885E-01
          0                 5           1            34   30     2       0.1819537078E-04      28   32    2         0.1905365034E-02      0.1852050174E-01
          0                 6           1            41   44     1      -0.9616299500E-05      32   32    2         0.1169369161E-02      0.1280001715E-01

    ------------------------------------------------
       NWT REQUIRED            6 OUTER ITERATIONS 
       AND A TOTAL OF          6 INNER ITERATIONS.
    ------------------------------------------------

 OUTPUT CONTROL FOR STRESS PERIOD    1   TIME STEP  193
    SAVE HEAD FOR ALL LAYERS
 SOLVING FOR ZETA FOR LAYER     1 ZONE     2

     962 UPPER PART EQS.       960 LOWER PART EQS.    BAND WIDTH + 1 =   40
 STRESS PERIOD=  1 TIMESTEP=193 LAYER=  1 ZONE=  2 ACTIVE CELLS= 1922 NUMBER OF EQUATIONS=    1922
 SOLVING FOR ZETA FOR LAYER     2 ZONE     2

      33 UPPER PART EQS.        32 LOWER PART EQS.    BAND WIDTH + 1 =    8
 STRESS PERIOD=  1 TIMESTEP=193 LAYER=  2 ZONE=  2 ACTIVE CELLS=   65 NUMBER OF EQUATIONS=      65
 UBUDSV SAVING "      ZETASRF  1" ON UNIT 55 AT TIME STEP193, STRESS PERIOD    1

 HEAD WILL BE SAVED ON UNIT   51 AT END OF TIME STEP  193, STRESS PERIOD    1
 
 SOLVING FOR HEAD 
                                                   Max.-Head-Change                         Max.-Flux-Residual
  Residual-Control   Outer-Iter.   Inner-Iter.     Column Row Layer    Maximum-Head-Change  Column Row Layer    Maximum-Flux-Residual          L2-NORM 
          0                 1           1            25   33     2      -0.9865663750E-03      33   26    2        -0.8927794689E+00      0.5110587872E+01
          0                 2           1            31   30     1       0.2433858663E-03      30   26    2        -0.3257807638E-01      0.3274443400E+00
          0                 3           1            31   32     1       0.1266723837E-03      28   32    2         0.1071758854E-01      0.7063205545E-01
          0                 4           1            32   32     2       0.4190985948E-04      32   32    2         0.5269075300E-02      0.3287732768E-01
          0                 5           1            28   32     2       0.2853169747E-04      34   30    2         0.2568906989E-02      0.1747812604E-01
          0                 6           1            32   32     2       0.1286231161E-04      32   32    2         0.1656034363E-02      0.1018847510E-01
          0                 7           1            28   32     2       0.1020716413E-04      34   30    2         0.8447554244E-03      0.6131166392E-02
          0                 8           1            30   30     2       0.4878372579E-05      32   32    2         0.6306020335E-03      0.4000332365E-02

    ------------------------------------------------
       NWT REQUIRED            8 OUTER ITERATIONS 
       AND A TOTAL OF          8 INNER ITERATIONS.
    ------------------------------------------------

 OUTPUT CONTROL FOR STRESS PERIOD    1   TIME STEP  194
    SAVE HEAD FOR ALL LAYERS
 SOLVING FOR ZETA FOR LAYER     1 ZONE     2

     922 UPPER PART EQS.       932 LOWER PART EQS.    BAND WIDTH + 1 =   45
 STRESS PERIOD=  1 TIMESTEP=194 LAYER=  1 ZONE=  2 ACTIVE CELLS= 1854 NUMBER OF EQUATIONS=    1854
 SOLVING FOR ZETA FOR LAYER     2 ZONE     2

      47 UPPER PART EQS.        44 LOWER PART EQS.    BAND WIDTH + 1 =   10
 STRESS PERIOD=  1 TIMESTEP=194 LAYER=  2 ZONE=  2 ACTIVE CELLS=   91 NUMBER OF EQUATIONS=      91
 UBUDSV SAVING "      ZETASRF  1" ON UNIT 55 AT TIME STEP194, STRESS PERIOD    1

 HEAD WILL BE SAVED ON UNIT   51 AT END OF TIME STEP  194, STRESS PERIOD    1
 
 SOLVING FOR HEAD 
                                                   Max.-Head-Change                         Max.-Flux-Residual
  Residual-Control   Outer-Iter.   Inner-Iter.     Column Row Layer    Maximum-Head-Change  Column Row Layer    Maximum-Flux-Residual          L2-NORM 
          0                 1           2            26   36     2      -0.9561269345E-03      13    9    1         0.6247837502E+00      0.4749737544E+01
          0                 2           1            31   32     1       0.1724834390E-03      32   33    1         0.1093794681E-01      0.8258940862E-01
          0                 3           1            32   32     2       0.5175564059E-04      31   29    2         0.4955074164E-02      0.4342131760E-01
          0                 4           1            31   32     1       0.4105804629E-04      35   29    2         0.3012223346E-02      0.2717480748E-01
          0                 5           1            31   29     2       0.1922049107E-04      31   29    2         0.2109885164E-02      0.1738768301E-01
          0                 6           1            31   32     1       0.1539891222E-04      35   29    2         0.1176346997E-02      0.1111835689E-01
          0                 7           1            31   29     2       0.7315839746E-05      31   29    2         0.9143415471E-03      0.7173430707E-02

    ------------------------------------------------
       NWT REQUIRED            7 OUTER ITERATIONS 
       AND A TOTAL OF          8 INNER ITERATIONS.
    ------------------------------------------------

 OUTPUT CONTROL FOR STRESS PERIOD    1   TIME STEP  195
    SAVE HEAD FOR ALL LAYERS
 SOLVING FOR ZETA FOR LAYER     1 ZONE     2

     940 UPPER PART EQS.       930 LOWER PART EQS.    BAND WIDTH + 1 =   45
 STRESS PERIOD=  1 TIMESTEP=195 LAYER=  1 ZONE=  2 ACTIVE CELLS= 1870 NUMBER OF EQUATIONS=    1870
 SOLVING FOR ZETA FOR LAYER     2 ZONE     2

      67 UPPER PART EQS.        64 LOWER PART EQS.    BAND WIDTH + 1 =   12
 STRESS PERIOD=  1 TIMESTEP=195 LAYER=  2 ZONE=  2 ACTIVE CELLS=  131 NUMBER OF EQUATIONS=     131
 UBUDSV SAVING "      ZETASRF  1" ON UNIT 55 AT TIME STEP195, STRESS PERIOD    1

 HEAD WILL BE SAVED ON UNIT   51 AT END OF TIME STEP  195, STRESS PERIOD    1
 
 SOLVING FOR HEAD 
                                                   Max.-Head-Change                         Max.-Flux-Residual
  Residual-Control   Outer-Iter.   Inner-Iter.     Column Row Layer    Maximum-Head-Change  Column Row Layer    Maximum-Flux-Residual          L2-NORM 
          0                 1           1            25   35     2      -0.9787130557E-03      27   37    2        -0.6063089945E+00      0.4519716533E+01
          0                 2           1            32   29     1       0.2117651213E-03      33   35    2         0.2568967053E-01      0.3157483213E+00
          0                 3           1            31   32     1       0.1636552184E-03      32   33    1         0.1076331384E-01      0.7873101294E-01
          0                 4           1            32   32     2       0.5438233387E-04      31   29    2         0.5142027685E-02      0.4010849520E-01
          0                 5           1            31   32     1       0.4352068216E-04      36   32    2         0.2947649590E-02      0.2338013370E-01
          0                 6           1            31   29     2       0.2037882809E-04      31   29    2         0.2013727400E-02      0.1522328682E-01
          0                 7           1            31   32     1       0.1813504014E-04      29   35    2         0.1175125919E-02      0.9830763335E-02
          0                 8           1            31   29     2       0.9759566711E-05      31   29    2         0.9435677784E-03      0.7182911357E-02

    ------------------------------------------------
       NWT REQUIRED            8 OUTER ITERATIONS 
       AND A TOTAL OF          8 INNER ITERATIONS.
    ------------------------------------------------

 OUTPUT CONTROL FOR STRESS PERIOD    1   TIME STEP  196
    SAVE HEAD FOR ALL LAYERS
 SOLVING FOR ZETA FOR LAYER     1 ZONE     2

     908 UPPER PART EQS.       916 LOWER PART EQS.    BAND WIDTH + 1 =   45
 STRESS PERIOD=  1 TIMESTEP=196 LAYER=  1 ZONE=  2 ACTIVE CELLS= 1824 NUMBER OF EQUATIONS=    1824
 SOLVING FOR ZETA FOR LAYER     2 ZONE     2

      69 UPPER PART EQS.        74 LOWER PART EQS.    BAND WIDTH + 1 =   13
 STRESS PERIOD=  1 TIMESTEP=196 LAYER=  2 ZONE=  2 ACTIVE CELLS=  143 NUMBER OF EQUATIONS=     143
 UBUDSV SAVING "      ZETASRF  1" ON UNIT 55 AT TIME STEP196, STRESS PERIOD    1

 HEAD WILL BE SAVED ON UNIT   51 AT END OF TIME STEP  196, STRESS PERIOD    1
 
 SOLVING FOR HEAD 
                                                   Max.-Head-Change                         Max.-Flux-Residual
  Residual-Control   Outer-Iter.   Inner-Iter.     Column Row Layer    Maximum-Head-Change  Column Row Layer    Maximum-Flux-Residual          L2-NORM 
          0                 1           1            24   34     2      -0.9695309817E-03       9   13    1        -0.6470649376E+00      0.5210850179E+01
          0                 2           1            31   28     1       0.1928866691E-03      30   26    2         0.2443068413E-01      0.3091217272E+00
          0                 3           1            31   32     1       0.1827603941E-03      31   30    1         0.1063860173E-01      0.8381043604E-01
          0                 4           1            33   31     2       0.6130772788E-04      33   31    2         0.5380506664E-02      0.4598296217E-01
          0                 5           1            31   32     1       0.5144981656E-04      25   31    2         0.3313768717E-02      0.2871807975E-01
          0                 6           1            33   31     2       0.2593597422E-04      33   31    2         0.2153383253E-02      0.1913584211E-01
          0                 7           1            31   30     1       0.2278886886E-04      25   31    2         0.1512694982E-02      0.1316137279E-01
          0                 8           1            33   31     2       0.1364795420E-04      25   31    2         0.1079710605E-02      0.9818855536E-02
          0                 9           1            31   30     1       0.1234317236E-04      25   31    2         0.8442377958E-03      0.7596948605E-02
          0                10           1            33   31     2       0.8506897840E-05      25   31    2         0.6784971337E-03      0.6347780735E-02

    ------------------------------------------------
       NWT REQUIRED           10 OUTER ITERATIONS 
       AND A TOTAL OF         10 INNER ITERATIONS.
    ------------------------------------------------

 OUTPUT CONTROL FOR STRESS PERIOD    1   TIME STEP  197
    SAVE HEAD FOR ALL LAYERS
 SOLVING FOR ZETA FOR LAYER     1 ZONE     2

     904 UPPER PART EQS.       912 LOWER PART EQS.    BAND WIDTH + 1 =   43
 STRESS PERIOD=  1 TIMESTEP=197 LAYER=  1 ZONE=  2 ACTIVE CELLS= 1816 NUMBER OF EQUATIONS=    1816
 SOLVING FOR ZETA FOR LAYER     2 ZONE     2

      89 UPPER PART EQS.        80 LOWER PART EQS.    BAND WIDTH + 1 =   14
 STRESS PERIOD=  1 TIMESTEP=197 LAYER=  2 ZONE=  2 ACTIVE CELLS=  169 NUMBER OF EQUATIONS=     169
 UBUDSV SAVING "      ZETASRF  1" ON UNIT 55 AT TIME STEP197, STRESS PERIOD    1

 HEAD WILL BE SAVED ON UNIT   51 AT END OF TIME STEP  197, STRESS PERIOD    1
 
 SOLVING FOR HEAD 
                                                   Max.-Head-Change                         Max.-Flux-Residual
  Residual-Control   Outer-Iter.   Inner-Iter.     Column Row Layer    Maximum-Head-Change  Column Row Layer    Maximum-Flux-Residual          L2-NORM 
          0                 1           1            25   37     2      -0.9828304878E-03      13    9    1         0.7830417202E+00      0.5363572406E+01
          0                 2           1            30   27     1       0.1840028947E-03      28   24    2        -0.3074115794E-01      0.3081760675E+00
          0                 3           1            31   32     1       0.1858594691E-03      31   30    1         0.1048083063E-01      0.8559087920E-01
          0                 4           1            33   31     2       0.6173459165E-04      34   30    2         0.5482388005E-02      0.4813016914E-01
          0                 5           1            32   31     1       0.5302819800E-04      26   34    2         0.3482088811E-02      0.3011879743E-01
          0                 6           1            33   31     2       0.2679046881E-04      32   28    2         0.2276020842E-02      0.2021447514E-01
          0                 7           1            31   30     1       0.2369611244E-04      26   34    2         0.1567903157E-02      0.1386990135E-01
          0                 8           1            32   28     2       0.1445325484E-04      32   28    2         0.1149466334E-02      0.1033785857E-01
          0                 9           1            31   30     1       0.1277702289E-04      37   31    2         0.8463587666E-03      0.7977375143E-02
          0                10           1            32   28     2       0.9156383384E-05      32   28    2         0.6563678681E-03      0.6635833592E-02

    ------------------------------------------------
       NWT REQUIRED           10 OUTER ITERATIONS 
       AND A TOTAL OF         10 INNER ITERATIONS.
    ------------------------------------------------

 OUTPUT CONTROL FOR STRESS PERIOD    1   TIME STEP  198
    SAVE HEAD FOR ALL LAYERS
 SOLVING FOR ZETA FOR LAYER     1 ZONE     2

     896 UPPER PART EQS.       892 LOWER PART EQS.    BAND WIDTH + 1 =   39
 STRESS PERIOD=  1 TIMESTEP=198 LAYER=  1 ZONE=  2 ACTIVE CELLS= 1788 NUMBER OF EQUATIONS=    1788
 SOLVING FOR ZETA FOR LAYER     2 ZONE     2

      97 UPPER PART EQS.        92 LOWER PART EQS.    BAND WIDTH + 1 =   14
 STRESS PERIOD=  1 TIMESTEP=198 LAYER=  2 ZONE=  2 ACTIVE CELLS=  189 NUMBER OF EQUATIONS=     189
 UBUDSV SAVING "      ZETASRF  1" ON UNIT 55 AT TIME STEP198, STRESS PERIOD    1

 HEAD WILL BE SAVED ON UNIT   51 AT END OF TIME STEP  198, STRESS PERIOD    1
 
 SOLVING FOR HEAD 
                                                   Max.-Head-Change                         Max.-Flux-Residual
  Residual-Control   Outer-Iter.   Inner-Iter.     Column Row Layer    Maximum-Head-Change  Column Row Layer    Maximum-Flux-Residual          L2-NORM 
          0                 1           1            26   38     2      -0.9275111788E-03      26   38    2        -0.5882967586E+00      0.4374522830E+01
          0                 2           1            30   27     1       0.1777291730E-03      35   21    2        -0.2254128943E-01      0.3039565197E+00
          0                 3           1            31   32     1       0.1874868824E-03      31   30    1         0.1018728786E-01      0.8700659350E-01
          0                 4           1            33   31     2       0.6211485103E-04      34   30    2         0.5621262073E-02      0.4985877629E-01
          0                 5           1            32   31     1       0.5353459142E-04      26   34    2         0.3566823627E-02      0.3118920426E-01
          0                 6           1            33   29     2       0.2625827824E-04      34   30    2         0.2231265692E-02      0.2093172973E-01
          0                 7           1            31   30     1       0.2408615611E-04      25   31    2         0.1568030572E-02      0.1391061220E-01
          0                 8           1            33   29     2       0.1348990904E-04      25   31    2         0.1076409825E-02      0.1022401910E-01
          0                 9           1            31   30     1       0.1266290674E-04      25   31    2         0.8421976098E-03      0.7541187554E-02
          0                10           1            33   29     2       0.8060366317E-05      25   31    2         0.6620151296E-03      0.6212805871E-02

    ------------------------------------------------
       NWT REQUIRED           10 OUTER ITERATIONS 
       AND A TOTAL OF         10 INNER ITERATIONS.
    ------------------------------------------------

 OUTPUT CONTROL FOR STRESS PERIOD    1   TIME STEP  199
    SAVE HEAD FOR ALL LAYERS
 SOLVING FOR ZETA FOR LAYER     1 ZONE     2

     894 UPPER PART EQS.       892 LOWER PART EQS.    BAND WIDTH + 1 =   35
 STRESS PERIOD=  1 TIMESTEP=199 LAYER=  1 ZONE=  2 ACTIVE CELLS= 1786 NUMBER OF EQUATIONS=    1786
 SOLVING FOR ZETA FOR LAYER     2 ZONE     2

     101 UPPER PART EQS.       104 LOWER PART EQS.    BAND WIDTH + 1 =   14
 STRESS PERIOD=  1 TIMESTEP=199 LAYER=  2 ZONE=  2 ACTIVE CELLS=  205 NUMBER OF EQUATIONS=     205
 UBUDSV SAVING "      ZETASRF  1" ON UNIT 55 AT TIME STEP199, STRESS PERIOD    1

 HEAD WILL BE SAVED ON UNIT   51 AT END OF TIME STEP  199, STRESS PERIOD    1
 
 SOLVING FOR HEAD 
                                                   Max.-Head-Change                         Max.-Flux-Residual
  Residual-Control   Outer-Iter.   Inner-Iter.     Column Row Layer    Maximum-Head-Change  Column Row Layer    Maximum-Flux-Residual          L2-NORM 
          0                 1           1            23   35     2      -0.9426900797E-03      26   38    2        -0.5682452626E+00      0.4745261090E+01
          0                 2           1            30   27     1       0.1600953960E-03      31   41    2        -0.2411177382E-01      0.3006321993E+00
          0                 3           1            31   30     1       0.1828074076E-03      31   30    1         0.9509553872E-02      0.8726891346E-01
          0                 4           1            34   30     2       0.6277934662E-04      34   30    2         0.5815051965E-02      0.4885235196E-01
          0                 5           1            32   31     1       0.5704115226E-04      25   35    2         0.3390234099E-02      0.3115626544E-01
          0                 6           1            34   30     2       0.2887963764E-04      34   30    2         0.2316042936E-02      0.2187415310E-01
          0                 7           1            31   30     1       0.2659269485E-04      25   35    2         0.1691715807E-02      0.1593949835E-01
          0                 8           1            34   30     2       0.1703178696E-04      24   32    2         0.1220602294E-02      0.1282706438E-01
          0                 9           1            31   30     1       0.1566644010E-04      24   32    2         0.1041057528E-02      0.1057319894E-01
          0                10           1            34   30     2       0.1163141157E-04      24   32    2         0.8356948641E-03      0.9259931216E-02
                                                   Max.-Head-Change                         Max.-Flux-Residual
  Residual-Control   Outer-Iter.   Inner-Iter.     Column Row Layer    Maximum-Head-Change  Column Row Layer    Maximum-Flux-Residual          L2-NORM 
          0                11           1            31   30     1       0.1088450098E-04      24   32    2         0.7268525867E-03      0.8137717101E-02
          0                12           1            34   30     2       0.8543477754E-05      24   32    2         0.6157181475E-03      0.7350616665E-02

    ------------------------------------------------
       NWT REQUIRED           12 OUTER ITERATIONS 
       AND A TOTAL OF         12 INNER ITERATIONS.
    ------------------------------------------------

 OUTPUT CONTROL FOR STRESS PERIOD    1   TIME STEP  200
    SAVE HEAD FOR ALL LAYERS
 SOLVING FOR ZETA FOR LAYER     1 ZONE     2

     876 UPPER PART EQS.       876 LOWER PART EQS.    BAND WIDTH + 1 =   35
 STRESS PERIOD=  1 TIMESTEP=200 LAYER=  1 ZONE=  2 ACTIVE CELLS= 1752 NUMBER OF EQUATIONS=    1752
 SOLVING FOR ZETA FOR LAYER     2 ZONE     2

     115 UPPER PART EQS.       112 LOWER PART EQS.    BAND WIDTH + 1 =   15
 STRESS PERIOD=  1 TIMESTEP=200 LAYER=  2 ZONE=  2 ACTIVE CELLS=  227 NUMBER OF EQUATIONS=     227
 UBUDSV SAVING "      ZETASRF  1" ON UNIT 55 AT TIME STEP200, STRESS PERIOD    1

 HEAD WILL BE SAVED ON UNIT   51 AT END OF TIME STEP  200, STRESS PERIOD    1
 
 SOLVING FOR HEAD 
                                                   Max.-Head-Change                         Max.-Flux-Residual
  Residual-Control   Outer-Iter.   Inner-Iter.     Column Row Layer    Maximum-Head-Change  Column Row Layer    Maximum-Flux-Residual          L2-NORM 
          0                 1           1            27   39     2      -0.9314736295E-03       9   49    1        -0.6274047557E+00      0.5249372050E+01
          0                 2           1            31   26     1       0.1589108808E-03      25   23    2        -0.2264821965E-01      0.2985210684E+00
          0                 3           1            31   30     1       0.1841869721E-03      31   30    1         0.9179232028E-02      0.8776258517E-01
          0                 4           1            34   30     2       0.6413730150E-04      34   30    2         0.5788791688E-02      0.5112127209E-01
          0                 5           1            32   31     1       0.5787635272E-04      25   35    2         0.3472037769E-02      0.3281607888E-01
          0                 6           1            34   30     2       0.2963416227E-04      34   30    2         0.2446662411E-02      0.2277103795E-01
          0                 7           1            31   30     1       0.2701267647E-04      25   35    2         0.1708255669E-02      0.1628658112E-01
          0                 8           1            34   30     2       0.1706694607E-04      34   30    2         0.1275609460E-02      0.1278946075E-01
          0                 9           1            31   30     1       0.1548699121E-04      24   32    2         0.1030944034E-02      0.1031970323E-01
          0                10           1            34   30     2       0.1139858366E-04      24   28    2         0.8414487017E-03      0.8911446081E-02
                                                   Max.-Head-Change                         Max.-Flux-Residual
  Residual-Control   Outer-Iter.   Inner-Iter.     Column Row Layer    Maximum-Head-Change  Column Row Layer    Maximum-Flux-Residual          L2-NORM 
          0                11           1            31   30     1       0.1055453051E-04      24   32    2         0.7084626936E-03      0.7759559942E-02
          0                12           1            34   30     2       0.8278395307E-05      24   28    2         0.6228878584E-03      0.6976980388E-02

    ------------------------------------------------
       NWT REQUIRED           12 OUTER ITERATIONS 
       AND A TOTAL OF         12 INNER ITERATIONS.
    ------------------------------------------------

 OUTPUT CONTROL FOR STRESS PERIOD    1   TIME STEP  201
    SAVE HEAD FOR ALL LAYERS
 SOLVING FOR ZETA FOR LAYER     1 ZONE     2

     872 UPPER PART EQS.       876 LOWER PART EQS.    BAND WIDTH + 1 =   37
 STRESS PERIOD=  1 TIMESTEP=201 LAYER=  1 ZONE=  2 ACTIVE CELLS= 1748 NUMBER OF EQUATIONS=    1748
 SOLVING FOR ZETA FOR LAYER     2 ZONE     2

     121 UPPER PART EQS.       120 LOWER PART EQS.    BAND WIDTH + 1 =   16
 STRESS PERIOD=  1 TIMESTEP=201 LAYER=  2 ZONE=  2 ACTIVE CELLS=  241 NUMBER OF EQUATIONS=     241
 UBUDSV SAVING "      ZETASRF  1" ON UNIT 55 AT TIME STEP201, STRESS PERIOD    1

 HEAD WILL BE SAVED ON UNIT   51 AT END OF TIME STEP  201, STRESS PERIOD    1
 
 SOLVING FOR HEAD 
                                                   Max.-Head-Change                         Max.-Flux-Residual
  Residual-Control   Outer-Iter.   Inner-Iter.     Column Row Layer    Maximum-Head-Change  Column Row Layer    Maximum-Flux-Residual          L2-NORM 
          0                 1           1            30   40     2      -0.9180342262E-03      13    9    1         0.7712087338E+00      0.5360012146E+01
          0                 2           1            34   27     1       0.1498464784E-03      25   23    2        -0.2310420408E-01      0.2946431846E+00
          0                 3           1            31   30     1       0.1815359148E-03      32   29    1         0.8699764623E-02      0.8849081480E-01
          0                 4           1            30   32     2       0.6429490609E-04      35   29    2         0.5355166091E-02      0.5168468625E-01
          0                 5           1            32   31     1       0.5529330817E-04      25   35    2         0.3407982506E-02      0.3313094890E-01
          0                 6           1            34   30     2       0.3053978051E-04      35   29    2         0.2218809242E-02      0.2263573594E-01
          0                 7           1            31   30     1       0.2458741209E-04      24   32    2         0.1698607908E-02      0.1615392837E-01
          0                 8           1            34   30     2       0.1833531574E-04      24   32    2         0.1203713511E-02      0.1232155450E-01
          0                 9           1            32   29     1       0.1326366249E-04      24   32    2         0.1026148484E-02      0.9991156751E-02
          0                10           1            34   30     2       0.1250348861E-04      24   32    2         0.7921147694E-03      0.8367636955E-02
          0                11           1            32   29     1       0.8829079199E-05      24   32    2         0.6990012512E-03      0.7431940136E-02

    ------------------------------------------------
       NWT REQUIRED           11 OUTER ITERATIONS 
       AND A TOTAL OF         11 INNER ITERATIONS.
    ------------------------------------------------

 OUTPUT CONTROL FOR STRESS PERIOD    1   TIME STEP  202
    SAVE HEAD FOR ALL LAYERS
 SOLVING FOR ZETA FOR LAYER     1 ZONE     2

     858 UPPER PART EQS.       856 LOWER PART EQS.    BAND WIDTH + 1 =   35
 STRESS PERIOD=  1 TIMESTEP=202 LAYER=  1 ZONE=  2 ACTIVE CELLS= 1714 NUMBER OF EQUATIONS=    1714
 SOLVING FOR ZETA FOR LAYER     2 ZONE     2

     129 UPPER PART EQS.       128 LOWER PART EQS.    BAND WIDTH + 1 =   16
 STRESS PERIOD=  1 TIMESTEP=202 LAYER=  2 ZONE=  2 ACTIVE CELLS=  257 NUMBER OF EQUATIONS=     257
 UBUDSV SAVING "      ZETASRF  1" ON UNIT 55 AT TIME STEP202, STRESS PERIOD    1

 HEAD WILL BE SAVED ON UNIT   51 AT END OF TIME STEP  202, STRESS PERIOD    1
 
 SOLVING FOR HEAD 
                                                   Max.-Head-Change                         Max.-Flux-Residual
  Residual-Control   Outer-Iter.   Inner-Iter.     Column Row Layer    Maximum-Head-Change  Column Row Layer    Maximum-Flux-Residual          L2-NORM 
          0                 1           1            21   33     2      -0.9014688754E-03      33   22    2        -0.7586157361E+00      0.4961820584E+01
          0                 2           1            33   26     1       0.1503478978E-03      25   23    2        -0.2360674733E-01      0.2919406399E+00
          0                 3           1            31   30     1       0.1796179374E-03      32   29    1         0.8271911005E-02      0.9131063166E-01
          0                 4           1            30   32     2       0.6623479850E-04      35   29    2         0.5597032302E-02      0.5458300660E-01
          0                 5           1            32   31     1       0.5603467545E-04      25   35    2         0.3647313378E-02      0.3491582752E-01
          0                 6           1            34   30     2       0.3175030417E-04      35   29    2         0.2352186215E-02      0.2376408604E-01
          0                 7           1            31   30     1       0.2461137368E-04      24   32    2         0.1806358496E-02      0.1672249586E-01
          0                 8           1            34   30     2       0.1888502966E-04      35   29    2         0.1184249302E-02      0.1255321256E-01
          0                 9           1            32   29     1       0.1303189224E-04      24   32    2         0.1072125814E-02      0.9994458643E-02
          0                10           1            34   30     2       0.1274768503E-04      24   32    2         0.7563961531E-03      0.8263367732E-02
          0                11           1            32   29     1       0.8450840653E-05      24   32    2         0.7164512217E-03      0.7284491615E-02

    ------------------------------------------------
       NWT REQUIRED           11 OUTER ITERATIONS 
       AND A TOTAL OF         11 INNER ITERATIONS.
    ------------------------------------------------

 OUTPUT CONTROL FOR STRESS PERIOD    1   TIME STEP  203
    SAVE HEAD FOR ALL LAYERS
 SOLVING FOR ZETA FOR LAYER     1 ZONE     2

     860 UPPER PART EQS.       856 LOWER PART EQS.    BAND WIDTH + 1 =   35
 STRESS PERIOD=  1 TIMESTEP=203 LAYER=  1 ZONE=  2 ACTIVE CELLS= 1716 NUMBER OF EQUATIONS=    1716
 SOLVING FOR ZETA FOR LAYER     2 ZONE     2

     139 UPPER PART EQS.       140 LOWER PART EQS.    BAND WIDTH + 1 =   18
 STRESS PERIOD=  1 TIMESTEP=203 LAYER=  2 ZONE=  2 ACTIVE CELLS=  279 NUMBER OF EQUATIONS=     279
 UBUDSV SAVING "      ZETASRF  1" ON UNIT 55 AT TIME STEP203, STRESS PERIOD    1

 HEAD WILL BE SAVED ON UNIT   51 AT END OF TIME STEP  203, STRESS PERIOD    1
 
 SOLVING FOR HEAD 
                                                   Max.-Head-Change                         Max.-Flux-Residual
  Residual-Control   Outer-Iter.   Inner-Iter.     Column Row Layer    Maximum-Head-Change  Column Row Layer    Maximum-Flux-Residual          L2-NORM 
          0                 1           1            27   40     2      -0.8950221620E-03      40   28    2         0.6207802939E+00      0.4926642820E+01
          0                 2           1            32   25     1       0.1437339086E-03      35   41    2        -0.2293170053E-01      0.2852094853E+00
          0                 3           1            31   30     1       0.1700706403E-03      30   27    1         0.7986450709E-02      0.8761104460E-01
          0                 4           1            30   32     2       0.6633459156E-04      35   29    2         0.5577890925E-02      0.5116004153E-01
          0                 5           1            32   31     1       0.5973583796E-04      25   35    2         0.3432962895E-02      0.3325167322E-01
          0                 6           1            30   32     2       0.3184425773E-04      35   29    2         0.2414773457E-02      0.2395188537E-01
          0                 7           1            32   32     2       0.2810519586E-04      25   35    2         0.1825775296E-02      0.1807462142E-01
          0                 8           1            28   32     2       0.2089504008E-04      35   29    2         0.1316071432E-02      0.1485111409E-01
          0                 9           1            32   29     1       0.1660293277E-04      25   35    2         0.1147335959E-02      0.1260050087E-01
          0                10           1            28   32     2       0.1518761929E-04      23   33    2         0.8824878620E-03      0.1105785865E-01
                                                   Max.-Head-Change                         Max.-Flux-Residual
  Residual-Control   Outer-Iter.   Inner-Iter.     Column Row Layer    Maximum-Head-Change  Column Row Layer    Maximum-Flux-Residual          L2-NORM 
          0                11           1            32   29     1       0.1172017400E-04      23   29    2         0.8124963005E-03      0.9916661374E-02
          0                12           1            33   27     2       0.1124348501E-04      24   36    2         0.6750535555E-03      0.8860439332E-02
          0                13           1            32   29     1       0.9054775746E-05      23   29    2         0.6245372645E-03      0.8054144874E-02

    ------------------------------------------------
       NWT REQUIRED           13 OUTER ITERATIONS 
       AND A TOTAL OF         13 INNER ITERATIONS.
    ------------------------------------------------

 OUTPUT CONTROL FOR STRESS PERIOD    1   TIME STEP  204
    SAVE HEAD FOR ALL LAYERS
 SOLVING FOR ZETA FOR LAYER     1 ZONE     2

     840 UPPER PART EQS.       844 LOWER PART EQS.    BAND WIDTH + 1 =   37
 STRESS PERIOD=  1 TIMESTEP=204 LAYER=  1 ZONE=  2 ACTIVE CELLS= 1684 NUMBER OF EQUATIONS=    1684
 SOLVING FOR ZETA FOR LAYER     2 ZONE     2

     149 UPPER PART EQS.       148 LOWER PART EQS.    BAND WIDTH + 1 =   16
 STRESS PERIOD=  1 TIMESTEP=204 LAYER=  2 ZONE=  2 ACTIVE CELLS=  297 NUMBER OF EQUATIONS=     297
 UBUDSV SAVING "      ZETASRF  1" ON UNIT 55 AT TIME STEP204, STRESS PERIOD    1

 HEAD WILL BE SAVED ON UNIT   51 AT END OF TIME STEP  204, STRESS PERIOD    1
 
 SOLVING FOR HEAD 
                                                   Max.-Head-Change                         Max.-Flux-Residual
  Residual-Control   Outer-Iter.   Inner-Iter.     Column Row Layer    Maximum-Head-Change  Column Row Layer    Maximum-Flux-Residual          L2-NORM 
          0                 1           1            26   40     2      -0.9122466134E-03      27   22    2        -0.5352083125E+00      0.4651487333E+01
          0                 2           1            27   26     1       0.1390858849E-03      34   42    2        -0.2341208682E-01      0.2842095146E+00
          0                 3           1            31   30     1       0.1727334189E-03      30   27    1         0.7819866609E-02      0.9134868521E-01
          0                 4           1            30   32     2       0.6632820005E-04      35   29    2         0.5496013745E-02      0.5452852824E-01
          0                 5           1            32   32     2       0.5909135767E-04      25   35    2         0.3102627537E-02      0.3499067003E-01
          0                 6           1            30   32     2       0.2984748726E-04      35   29    2         0.2420153926E-02      0.2407686219E-01
          0                 7           1            32   32     2       0.2803679156E-04      25   35    2         0.1610731839E-02      0.1718683315E-01
          0                 8           1            28   32     2       0.1773150802E-04      35   29    2         0.1278585897E-02      0.1336052383E-01
          0                 9           1            32   32     2       0.1566073981E-04      25   35    2         0.9566664909E-03      0.1080425697E-01
          0                10           1            28   32     2       0.1230030924E-04      35   29    2         0.7695255657E-03      0.9299294598E-02
                                                   Max.-Head-Change                         Max.-Flux-Residual
  Residual-Control   Outer-Iter.   Inner-Iter.     Column Row Layer    Maximum-Head-Change  Column Row Layer    Maximum-Flux-Residual          L2-NORM 
          0                11           1            32   32     2       0.1033925006E-04      24   36    2         0.6815450894E-03      0.8167620487E-02
          0                12           1            28   32     2       0.9050406700E-05      24   36    2         0.5762134766E-03      0.7297082893E-02

    ------------------------------------------------
       NWT REQUIRED           12 OUTER ITERATIONS 
       AND A TOTAL OF         12 INNER ITERATIONS.
    ------------------------------------------------

 OUTPUT CONTROL FOR STRESS PERIOD    1   TIME STEP  205
    SAVE HEAD FOR ALL LAYERS
 SOLVING FOR ZETA FOR LAYER     1 ZONE     2

     848 UPPER PART EQS.       848 LOWER PART EQS.    BAND WIDTH + 1 =   35
 STRESS PERIOD=  1 TIMESTEP=205 LAYER=  1 ZONE=  2 ACTIVE CELLS= 1696 NUMBER OF EQUATIONS=    1696
 SOLVING FOR ZETA FOR LAYER     2 ZONE     2

     157 UPPER PART EQS.       152 LOWER PART EQS.    BAND WIDTH + 1 =   18
 STRESS PERIOD=  1 TIMESTEP=205 LAYER=  2 ZONE=  2 ACTIVE CELLS=  309 NUMBER OF EQUATIONS=     309
 UBUDSV SAVING "      ZETASRF  1" ON UNIT 55 AT TIME STEP205, STRESS PERIOD    1

 HEAD WILL BE SAVED ON UNIT   51 AT END OF TIME STEP  205, STRESS PERIOD    1
 
 SOLVING FOR HEAD 
                                                   Max.-Head-Change                         Max.-Flux-Residual
  Residual-Control   Outer-Iter.   Inner-Iter.     Column Row Layer    Maximum-Head-Change  Column Row Layer    Maximum-Flux-Residual          L2-NORM 
          0                 1           1            29   41     2      -0.8680160955E-03      36   22    2         0.5483986141E+00      0.5333733243E+01
          0                 2           1            27   26     1       0.1385248864E-03      26   22    2        -0.2390756679E-01      0.2899493339E+00
          0                 3           1            31   30     1       0.1574114119E-03      30   27    1         0.7584183310E-02      0.8802239515E-01
          0                 4           1            30   32     2       0.6816854495E-04      35   29    2         0.5353811700E-02      0.5065252700E-01
          0                 5           1            32   32     2       0.6178667082E-04      32   32    2         0.3178497560E-02      0.3368571070E-01
          0                 6           1            30   32     2       0.3350438587E-04      35   29    2         0.2429931528E-02      0.2499589797E-01
          0                 7           1            32   32     2       0.3110599303E-04      24   36    2         0.1811328215E-02      0.1968976047E-01
          0                 8           1            28   32     2       0.2237511834E-04      35   29    2         0.1404813765E-02      0.1670992300E-01
          0                 9           1            32   32     2       0.1912341768E-04      24   36    2         0.1256301130E-02      0.1452704016E-01
          0                10           1            28   32     2       0.1650612966E-04      24   36    2         0.1024420068E-02      0.1294549399E-01
                                                   Max.-Head-Change                         Max.-Flux-Residual
  Residual-Control   Outer-Iter.   Inner-Iter.     Column Row Layer    Maximum-Head-Change  Column Row Layer    Maximum-Flux-Residual          L2-NORM 
          0                11           1            32   32     2       0.1373316278E-04      24   36    2         0.9411646672E-03      0.1167816149E-01
          0                12           1            35   29     2       0.1255967947E-04      24   36    2         0.7994365702E-03      0.1050096049E-01
          0                13           1            32   32     2       0.1069729226E-04      24   36    2         0.7267485847E-03      0.9542004039E-02
          0                14           1            35   29     2       0.9833454780E-05      24   36    2         0.6433317866E-03      0.8608727740E-02

    ------------------------------------------------
       NWT REQUIRED           14 OUTER ITERATIONS 
       AND A TOTAL OF         14 INNER ITERATIONS.
    ------------------------------------------------

 OUTPUT CONTROL FOR STRESS PERIOD    1   TIME STEP  206
    SAVE HEAD FOR ALL LAYERS
 SOLVING FOR ZETA FOR LAYER     1 ZONE     2

     820 UPPER PART EQS.       832 LOWER PART EQS.    BAND WIDTH + 1 =   41
 STRESS PERIOD=  1 TIMESTEP=206 LAYER=  1 ZONE=  2 ACTIVE CELLS= 1652 NUMBER OF EQUATIONS=    1652
 SOLVING FOR ZETA FOR LAYER     2 ZONE     2

     161 UPPER PART EQS.       156 LOWER PART EQS.    BAND WIDTH + 1 =   20
 STRESS PERIOD=  1 TIMESTEP=206 LAYER=  2 ZONE=  2 ACTIVE CELLS=  317 NUMBER OF EQUATIONS=     317
 UBUDSV SAVING "      ZETASRF  1" ON UNIT 55 AT TIME STEP206, STRESS PERIOD    1

 HEAD WILL BE SAVED ON UNIT   51 AT END OF TIME STEP  206, STRESS PERIOD    1
 
 SOLVING FOR HEAD 
                                                   Max.-Head-Change                         Max.-Flux-Residual
  Residual-Control   Outer-Iter.   Inner-Iter.     Column Row Layer    Maximum-Head-Change  Column Row Layer    Maximum-Flux-Residual          L2-NORM 
          0                 1           1            33   41     2      -0.8510513906E-03       9   13    1         0.5957711925E+00      0.4577413176E+01
          0                 2           1            27   26     1       0.1376651960E-03      26   22    2        -0.2469067268E-01      0.2832390067E+00
          0                 3           1            31   30     1       0.1699357688E-03      30   27    1         0.7477154454E-02      0.9571328275E-01
          0                 4           1            30   32     2       0.6298270568E-04      35   29    2         0.5251579532E-02      0.5708139385E-01
          0                 5           1            32   32     2       0.5792754548E-04      32   32    2         0.2961936062E-02      0.3586174638E-01
          0                 6           1            29   31     2       0.2735721397E-04      35   29    2         0.2371702250E-02      0.2377079257E-01
          0                 7           1            32   32     2       0.2663182736E-04      26   38    2         0.1423334219E-02      0.1613499670E-01
          0                 8           1            29   31     2       0.1472756214E-04      35   29    2         0.1229250794E-02      0.1173106761E-01
          0                 9           1            32   32     2       0.1434899379E-04      24   36    2         0.7860379239E-03      0.8921625546E-02
          0                10           1            29   31     2       0.9300579302E-05      35   29    2         0.6956176001E-03      0.7358167214E-02

    ------------------------------------------------
       NWT REQUIRED           10 OUTER ITERATIONS 
       AND A TOTAL OF         10 INNER ITERATIONS.
    ------------------------------------------------

 OUTPUT CONTROL FOR STRESS PERIOD    1   TIME STEP  207
    SAVE HEAD FOR ALL LAYERS
 SOLVING FOR ZETA FOR LAYER     1 ZONE     2

     836 UPPER PART EQS.       832 LOWER PART EQS.    BAND WIDTH + 1 =   33
 STRESS PERIOD=  1 TIMESTEP=207 LAYER=  1 ZONE=  2 ACTIVE CELLS= 1668 NUMBER OF EQUATIONS=    1668
 SOLVING FOR ZETA FOR LAYER     2 ZONE     2

     169 UPPER PART EQS.       172 LOWER PART EQS.    BAND WIDTH + 1 =   18
 STRESS PERIOD=  1 TIMESTEP=207 LAYER=  2 ZONE=  2 ACTIVE CELLS=  341 NUMBER OF EQUATIONS=     341
 UBUDSV SAVING "      ZETASRF  1" ON UNIT 55 AT TIME STEP207, STRESS PERIOD    1

 HEAD WILL BE SAVED ON UNIT   51 AT END OF TIME STEP  207, STRESS PERIOD    1
 
 SOLVING FOR HEAD 
                                                   Max.-Head-Change                         Max.-Flux-Residual
  Residual-Control   Outer-Iter.   Inner-Iter.     Column Row Layer    Maximum-Head-Change  Column Row Layer    Maximum-Flux-Residual          L2-NORM 
          0                 1           1            21   35     2      -0.8395247339E-03      40   36    2         0.5402035486E+00      0.4486083479E+01
          0                 2           1            36   27     1       0.1281582739E-03      26   22    2        -0.2120242008E-01      0.2728991931E+00
          0                 3           1            31   30     1       0.1535237165E-03      30   27    1         0.7175238708E-02      0.8657598152E-01
          0                 4           1            30   32     2       0.6699007220E-04      36   28    2         0.4717308411E-02      0.5125640221E-01
          0                 5           1            32   32     2       0.5832166757E-04      33   31    2         0.3000282922E-02      0.3354272568E-01
          0                 6           1            31   32     1       0.3301277800E-04      34   26    2         0.2201315722E-02      0.2413444151E-01
          0                 7           1            32   32     2       0.2779981727E-04      24   36    2         0.1754272396E-02      0.1835969743E-01
          0                 8           1            31   32     1       0.2219858352E-04      35   29    2         0.1249184120E-02      0.1501832672E-01
          0                 9           1            32   30     2       0.1594934885E-04      24   36    2         0.1188575703E-02      0.1285335707E-01
          0                10           1            31   32     1       0.1642540547E-04      24   36    2         0.8708685357E-03      0.1119511458E-01
                                                   Max.-Head-Change                         Max.-Flux-Residual
  Residual-Control   Outer-Iter.   Inner-Iter.     Column Row Layer    Maximum-Head-Change  Column Row Layer    Maximum-Flux-Residual          L2-NORM 
          0                11           1            32   30     2       0.1110639671E-04      24   36    2         0.8793749818E-03      0.1015818268E-01
          0                12           1            31   32     1       0.1204199345E-04      24   36    2         0.6653243165E-03      0.8963868765E-02
          0                13           1            32   30     2       0.8593630981E-05      24   36    2         0.6715896506E-03      0.8250883721E-02

    ------------------------------------------------
       NWT REQUIRED           13 OUTER ITERATIONS 
       AND A TOTAL OF         13 INNER ITERATIONS.
    ------------------------------------------------

 OUTPUT CONTROL FOR STRESS PERIOD    1   TIME STEP  208
    SAVE HEAD FOR ALL LAYERS
 SOLVING FOR ZETA FOR LAYER     1 ZONE     2

     824 UPPER PART EQS.       808 LOWER PART EQS.    BAND WIDTH + 1 =   45
 STRESS PERIOD=  1 TIMESTEP=208 LAYER=  1 ZONE=  2 ACTIVE CELLS= 1632 NUMBER OF EQUATIONS=    1632
 SOLVING FOR ZETA FOR LAYER     2 ZONE     2

     177 UPPER PART EQS.       180 LOWER PART EQS.    BAND WIDTH + 1 =   18
 STRESS PERIOD=  1 TIMESTEP=208 LAYER=  2 ZONE=  2 ACTIVE CELLS=  357 NUMBER OF EQUATIONS=     357
 UBUDSV SAVING "      ZETASRF  1" ON UNIT 55 AT TIME STEP208, STRESS PERIOD    1

 HEAD WILL BE SAVED ON UNIT   51 AT END OF TIME STEP  208, STRESS PERIOD    1
 
 SOLVING FOR HEAD 
                                                   Max.-Head-Change                         Max.-Flux-Residual
  Residual-Control   Outer-Iter.   Inner-Iter.     Column Row Layer    Maximum-Head-Change  Column Row Layer    Maximum-Flux-Residual          L2-NORM 
          0                 1           1            27   41     2      -0.8279409824E-03      39   38    2         0.5621238169E+00      0.4478438258E+01
          0                 2           1            31   24     1       0.1284471980E-03      33   43    2        -0.2149528853E-01      0.2699807215E+00
          0                 3           1            31   30     1       0.1549356227E-03      30   27    1         0.7082520901E-02      0.8987595037E-01
          0                 4           1            30   32     2       0.6671968175E-04      37   31    2         0.4743315539E-02      0.5432969448E-01
          0                 5           1            32   32     2       0.5842606369E-04      23   33    2         0.3039331269E-02      0.3509988100E-01
          0                 6           1            31   32     1       0.3175716244E-04      36   28    2         0.2205212255E-02      0.2452587545E-01
          0                 7           1            32   32     2       0.2788030177E-04      24   36    2         0.1633320344E-02      0.1784182519E-01
          0                 8           1            31   32     1       0.1952198424E-04      36   28    2         0.1196192316E-02      0.1413148037E-01
          0                 9           1            32   30     2       0.1581511933E-04      24   36    2         0.1057775052E-02      0.1165721752E-01
          0                10           1            31   32     1       0.1371030575E-04      24   36    2         0.7800172921E-03      0.1010651505E-01
                                                   Max.-Head-Change                         Max.-Flux-Residual
  Residual-Control   Outer-Iter.   Inner-Iter.     Column Row Layer    Maximum-Head-Change  Column Row Layer    Maximum-Flux-Residual          L2-NORM 
          0                11           1            32   30     2       0.1064698190E-04      24   36    2         0.7622846897E-03      0.9007122555E-02
          0                12           1            31   32     1       0.1003133746E-04      24   40    2         0.6016409395E-03      0.8019226989E-02
          0                13           1            32   30     2       0.8006292116E-05      24   36    2         0.5779106551E-03      0.7323047193E-02

    ------------------------------------------------
       NWT REQUIRED           13 OUTER ITERATIONS 
       AND A TOTAL OF         13 INNER ITERATIONS.
    ------------------------------------------------

 OUTPUT CONTROL FOR STRESS PERIOD    1   TIME STEP  209
    SAVE HEAD FOR ALL LAYERS
 SOLVING FOR ZETA FOR LAYER     1 ZONE     2

     820 UPPER PART EQS.       816 LOWER PART EQS.    BAND WIDTH + 1 =   33
 STRESS PERIOD=  1 TIMESTEP=209 LAYER=  1 ZONE=  2 ACTIVE CELLS= 1636 NUMBER OF EQUATIONS=    1636
 SOLVING FOR ZETA FOR LAYER     2 ZONE     2

     181 UPPER PART EQS.       188 LOWER PART EQS.    BAND WIDTH + 1 =   20
 STRESS PERIOD=  1 TIMESTEP=209 LAYER=  2 ZONE=  2 ACTIVE CELLS=  369 NUMBER OF EQUATIONS=     369
 UBUDSV SAVING "      ZETASRF  1" ON UNIT 55 AT TIME STEP209, STRESS PERIOD    1

 HEAD WILL BE SAVED ON UNIT   51 AT END OF TIME STEP  209, STRESS PERIOD    1
 
 SOLVING FOR HEAD 
                                                   Max.-Head-Change                         Max.-Flux-Residual
  Residual-Control   Outer-Iter.   Inner-Iter.     Column Row Layer    Maximum-Head-Change  Column Row Layer    Maximum-Flux-Residual          L2-NORM 
          0                 1           1            21   36     2      -0.8328123134E-03      40   38    2        -0.5361706999E+00      0.4637297147E+01
          0                 2           1            34   25     1       0.1226355948E-03      27   21    2        -0.2430690346E-01      0.2709543456E+00
          0                 3           1            32   29     1       0.1412202149E-03      31   26    1         0.6815456043E-02      0.8665081622E-01
          0                 4           1            30   32     2       0.6871446984E-04      36   28    2         0.4673010546E-02      0.5170629069E-01
          0                 5           1            32   32     2       0.6096885548E-04      33   31    2         0.3048156742E-02      0.3445584171E-01
          0                 6           1            31   32     1       0.3433993929E-04      36   28    2         0.2300109952E-02      0.2515716353E-01
          0                 7           1            32   32     2       0.3072008369E-04      24   36    2         0.1699402398E-02      0.1951606152E-01
          0                 8           1            31   32     1       0.2294545310E-04      36   28    2         0.1334321784E-02      0.1624256046E-01
          0                 9           1            33   31     2       0.1827792430E-04      24   36    2         0.1134764615E-02      0.1403314727E-01
          0                10           1            31   30     1       0.1716794850E-04      36   28    2         0.8932349201E-03      0.1242403883E-01
                                                   Max.-Head-Change                         Max.-Flux-Residual
  Residual-Control   Outer-Iter.   Inner-Iter.     Column Row Layer    Maximum-Head-Change  Column Row Layer    Maximum-Flux-Residual          L2-NORM 
          0                11           1            33   31     2       0.1283676540E-04      25   39    2         0.8456232347E-03      0.1123780789E-01
          0                12           1            31   30     1       0.1293942659E-04      23   37    2         0.6960744624E-03      0.1005667333E-01
          0                13           1            33   31     2       0.9957931434E-05      25   39    2         0.6636644587E-03      0.9196199149E-02

    ------------------------------------------------
       NWT REQUIRED           13 OUTER ITERATIONS 
       AND A TOTAL OF         13 INNER ITERATIONS.
    ------------------------------------------------

 OUTPUT CONTROL FOR STRESS PERIOD    1   TIME STEP  210
    SAVE HEAD FOR ALL LAYERS
 SOLVING FOR ZETA FOR LAYER     1 ZONE     2

     800 UPPER PART EQS.       808 LOWER PART EQS.    BAND WIDTH + 1 =   39
 STRESS PERIOD=  1 TIMESTEP=210 LAYER=  1 ZONE=  2 ACTIVE CELLS= 1608 NUMBER OF EQUATIONS=    1608
 SOLVING FOR ZETA FOR LAYER     2 ZONE     2

     189 UPPER PART EQS.       188 LOWER PART EQS.    BAND WIDTH + 1 =   18
 STRESS PERIOD=  1 TIMESTEP=210 LAYER=  2 ZONE=  2 ACTIVE CELLS=  377 NUMBER OF EQUATIONS=     377
 UBUDSV SAVING "      ZETASRF  1" ON UNIT 55 AT TIME STEP210, STRESS PERIOD    1

 HEAD WILL BE SAVED ON UNIT   51 AT END OF TIME STEP  210, STRESS PERIOD    1
 
 SOLVING FOR HEAD 
                                                   Max.-Head-Change                         Max.-Flux-Residual
  Residual-Control   Outer-Iter.   Inner-Iter.     Column Row Layer    Maximum-Head-Change  Column Row Layer    Maximum-Flux-Residual          L2-NORM 
          0                 1           1            25   41     2      -0.8360804921E-03      21   36    2        -0.5038318597E+00      0.4460307781E+01
          0                 2           1            37   26     1       0.1187175857E-03      22   22    2        -0.2169842505E-01      0.2672790889E+00
          0                 3           1            31   28     1       0.1460145660E-03      31   26    1         0.6525133464E-02      0.9083304854E-01
          0                 4           1            31   31     2       0.6617381849E-04      36   28    2         0.4674094315E-02      0.5501520793E-01
          0                 5           1            32   32     2       0.6299209006E-04      33   31    2         0.3015769272E-02      0.3556476547E-01
          0                 6           1            31   32     1       0.3064480060E-04      36   28    2         0.2291495767E-02      0.2487989701E-01
          0                 7           1            32   32     2       0.3173426552E-04      33   31    2         0.1520905237E-02      0.1828712021E-01
          0                 8           1            32   31     1       0.1828325802E-04      36   28    2         0.1285212363E-02      0.1468719089E-01
          0                 9           1            33   31     2       0.1894379364E-04      23   37    2         0.9261173975E-03      0.1217565623E-01
          0                10           1            31   30     1       0.1287285262E-04      36   28    2         0.8217084891E-03      0.1078657537E-01
                                                   Max.-Head-Change                         Max.-Flux-Residual
  Residual-Control   Outer-Iter.   Inner-Iter.     Column Row Layer    Maximum-Head-Change  Column Row Layer    Maximum-Flux-Residual          L2-NORM 
          0                11           1            33   31     2       0.1268070202E-04      23   37    2         0.7053187396E-03      0.9486778097E-02
          0                12           1            31   30     1       0.9805555656E-05      23   37    2         0.6146257531E-03      0.8638048632E-02

    ------------------------------------------------
       NWT REQUIRED           12 OUTER ITERATIONS 
       AND A TOTAL OF         12 INNER ITERATIONS.
    ------------------------------------------------

 OUTPUT CONTROL FOR STRESS PERIOD    1   TIME STEP  211
    SAVE HEAD FOR ALL LAYERS
 SOLVING FOR ZETA FOR LAYER     1 ZONE     2

     812 UPPER PART EQS.       808 LOWER PART EQS.    BAND WIDTH + 1 =   33
 STRESS PERIOD=  1 TIMESTEP=211 LAYER=  1 ZONE=  2 ACTIVE CELLS= 1620 NUMBER OF EQUATIONS=    1620
 SOLVING FOR ZETA FOR LAYER     2 ZONE     2

     197 UPPER PART EQS.       192 LOWER PART EQS.    BAND WIDTH + 1 =   20
 STRESS PERIOD=  1 TIMESTEP=211 LAYER=  2 ZONE=  2 ACTIVE CELLS=  389 NUMBER OF EQUATIONS=     389
 UBUDSV SAVING "      ZETASRF  1" ON UNIT 55 AT TIME STEP211, STRESS PERIOD    1

 HEAD WILL BE SAVED ON UNIT   51 AT END OF TIME STEP  211, STRESS PERIOD    1
 
 SOLVING FOR HEAD 
                                                   Max.-Head-Change                         Max.-Flux-Residual
  Residual-Control   Outer-Iter.   Inner-Iter.     Column Row Layer    Maximum-Head-Change  Column Row Layer    Maximum-Flux-Residual          L2-NORM 
          0                 1           1            31   42     2      -0.8183443460E-03      25   41    2        -0.5127311237E+00      0.4549615926E+01
          0                 2           1            36   25     1       0.1176151278E-03      22   22    2        -0.2100881585E-01      0.2623087254E+00
          0                 3           1            31   28     1       0.1360416447E-03      31   26    1         0.6438746698E-02      0.8557847451E-01
          0                 4           1            31   31     2       0.6790273811E-04      37   31    2         0.4560984134E-02      0.5160189852E-01
          0                 5           1            32   32     2       0.6234715939E-04      33   31    2         0.3060582144E-02      0.3475111748E-01
          0                 6           1            31   32     1       0.3403013940E-04      36   28    2         0.2288836772E-02      0.2577532997E-01
          0                 7           1            32   32     2       0.3257889284E-04      23   33    2         0.1617818383E-02      0.2020342704E-01
          0                 8           1            31   30     1       0.2234482390E-04      36   28    2         0.1359345006E-02      0.1710170244E-01
          0                 9           1            33   31     2       0.2023041678E-04      23   37    2         0.1131025225E-02      0.1474637436E-01
          0                10           1            31   30     1       0.1643096698E-04      23   37    2         0.9404593146E-03      0.1322107413E-01
                                                   Max.-Head-Change                         Max.-Flux-Residual
  Residual-Control   Outer-Iter.   Inner-Iter.     Column Row Layer    Maximum-Head-Change  Column Row Layer    Maximum-Flux-Residual          L2-NORM 
          0                11           1            33   31     2       0.1445728471E-04      23   37    2         0.8781906278E-03      0.1183303954E-01
          0                12           1            31   30     1       0.1241750946E-04      23   37    2         0.7563367483E-03      0.1072844105E-01
          0                13           1            33   31     2       0.1121783143E-04      23   37    2         0.6909652451E-03      0.9680301522E-02
          0                14           1            31   30     1       0.9680396629E-05      23   37    2         0.6168407622E-03      0.8798454401E-02

    ------------------------------------------------
       NWT REQUIRED           14 OUTER ITERATIONS 
       AND A TOTAL OF         14 INNER ITERATIONS.
    ------------------------------------------------

 OUTPUT CONTROL FOR STRESS PERIOD    1   TIME STEP  212
    SAVE HEAD FOR ALL LAYERS
 SOLVING FOR ZETA FOR LAYER     1 ZONE     2

     802 UPPER PART EQS.       798 LOWER PART EQS.    BAND WIDTH + 1 =   33
 STRESS PERIOD=  1 TIMESTEP=212 LAYER=  1 ZONE=  2 ACTIVE CELLS= 1600 NUMBER OF EQUATIONS=    1600
 SOLVING FOR ZETA FOR LAYER     2 ZONE     2

     205 UPPER PART EQS.       196 LOWER PART EQS.    BAND WIDTH + 1 =   20
 STRESS PERIOD=  1 TIMESTEP=212 LAYER=  2 ZONE=  2 ACTIVE CELLS=  401 NUMBER OF EQUATIONS=     401
 UBUDSV SAVING "      ZETASRF  1" ON UNIT 55 AT TIME STEP212, STRESS PERIOD    1

 HEAD WILL BE SAVED ON UNIT   51 AT END OF TIME STEP  212, STRESS PERIOD    1
 
 SOLVING FOR HEAD 
                                                   Max.-Head-Change                         Max.-Flux-Residual
  Residual-Control   Outer-Iter.   Inner-Iter.     Column Row Layer    Maximum-Head-Change  Column Row Layer    Maximum-Flux-Residual          L2-NORM 
          0                 1           1            24   41     2      -0.7920766465E-03      21   37    2        -0.5070179304E+00      0.4246168508E+01
          0                 2           1            36   25     1       0.1175829693E-03      22   22    2        -0.2050043351E-01      0.2542674566E+00
          0                 3           1            32   29     1       0.1391360140E-03      31   26    1         0.6115040711E-02      0.8722734033E-01
          0                 4           1            31   31     2       0.6307602118E-04      36   28    2         0.4531861196E-02      0.5276008185E-01
          0                 5           1            32   32     2       0.6045782260E-04      33   31    2         0.2883671922E-02      0.3418505578E-01
          0                 6           1            32   31     1       0.2978053603E-04      36   28    2         0.2219338806E-02      0.2398017521E-01
          0                 7           1            32   32     2       0.3014270340E-04      33   31    2         0.1453549464E-02      0.1777315855E-01
          0                 8           1            32   31     1       0.1827921861E-04      36   28    2         0.1249240511E-02      0.1428806757E-01
          0                 9           1            33   31     2       0.1786821005E-04      23   37    2         0.9058112335E-03      0.1194972963E-01
          0                10           1            32   31     1       0.1307328907E-04      36   28    2         0.8020034007E-03      0.1054939485E-01
                                                   Max.-Head-Change                         Max.-Flux-Residual
  Residual-Control   Outer-Iter.   Inner-Iter.     Column Row Layer    Maximum-Head-Change  Column Row Layer    Maximum-Flux-Residual          L2-NORM 
          0                11           1            29   32     1       0.1191456987E-04      23   37    2         0.6934559071E-03      0.9362448859E-02
          0                12           1            32   31     1       0.9995823129E-05      23   37    2         0.6023771200E-03      0.8463874986E-02

    ------------------------------------------------
       NWT REQUIRED           12 OUTER ITERATIONS 
       AND A TOTAL OF         12 INNER ITERATIONS.
    ------------------------------------------------

 OUTPUT CONTROL FOR STRESS PERIOD    1   TIME STEP  213
    SAVE HEAD FOR ALL LAYERS
 SOLVING FOR ZETA FOR LAYER     1 ZONE     2

     798 UPPER PART EQS.       804 LOWER PART EQS.    BAND WIDTH + 1 =   39
 STRESS PERIOD=  1 TIMESTEP=213 LAYER=  1 ZONE=  2 ACTIVE CELLS= 1602 NUMBER OF EQUATIONS=    1602
 SOLVING FOR ZETA FOR LAYER     2 ZONE     2

     215 UPPER PART EQS.       208 LOWER PART EQS.    BAND WIDTH + 1 =   21
 STRESS PERIOD=  1 TIMESTEP=213 LAYER=  2 ZONE=  2 ACTIVE CELLS=  423 NUMBER OF EQUATIONS=     423
 UBUDSV SAVING "      ZETASRF  1" ON UNIT 55 AT TIME STEP213, STRESS PERIOD    1

 HEAD WILL BE SAVED ON UNIT   51 AT END OF TIME STEP  213, STRESS PERIOD    1
 
 SOLVING FOR HEAD 
                                                   Max.-Head-Change                         Max.-Flux-Residual
  Residual-Control   Outer-Iter.   Inner-Iter.     Column Row Layer    Maximum-Head-Change  Column Row Layer    Maximum-Flux-Residual          L2-NORM 
          0                 1           1            27   42     2      -0.7930950019E-03      24   22    2         0.5415470077E+00      0.3898291920E+01
          0                 2           1            36   25     1       0.1121069282E-03      23   21    2        -0.2028826557E-01      0.2485060925E+00
          0                 3           1            30   27     1       0.1321092168E-03      31   26    1         0.6110331780E-02      0.8415417760E-01
          0                 4           1            31   31     2       0.6556188035E-04      32   33    1         0.4356094760E-02      0.5107028461E-01
          0                 5           1            32   32     2       0.6049615758E-04      33   31    2         0.2954738939E-02      0.3419301430E-01
          0                 6           1            31   32     1       0.3321099799E-04      36   28    2         0.2187043549E-02      0.2515430393E-01
          0                 7           1            32   32     2       0.3163159681E-04      33   31    2         0.1554990993E-02      0.1953285056E-01
          0                 8           1            32   31     1       0.2148200051E-04      36   28    2         0.1302022260E-02      0.1646396919E-01
          0                 9           1            33   31     2       0.1964092756E-04      25   39    2         0.1113835636E-02      0.1413965166E-01
          0                10           1            31   30     1       0.1560970559E-04      36   28    2         0.8884988804E-03      0.1272214769E-01
                                                   Max.-Head-Change                         Max.-Flux-Residual
  Residual-Control   Outer-Iter.   Inner-Iter.     Column Row Layer    Maximum-Head-Change  Column Row Layer    Maximum-Flux-Residual          L2-NORM 
          0                11           1            33   31     2       0.1390711123E-04      25   39    2         0.8633168121E-03      0.1136196177E-01
          0                12           1            31   30     1       0.1182913840E-04      20   36    2         0.7047195093E-03      0.1034696922E-01
          0                13           1            33   31     2       0.1066232511E-04      25   39    2         0.6821875091E-03      0.9322020163E-02
          0                14           1            31   30     1       0.9267012438E-05      20   36    2         0.5706251430E-03      0.8493872937E-02

    ------------------------------------------------
       NWT REQUIRED           14 OUTER ITERATIONS 
       AND A TOTAL OF         14 INNER ITERATIONS.
    ------------------------------------------------

 OUTPUT CONTROL FOR STRESS PERIOD    1   TIME STEP  214
    SAVE HEAD FOR ALL LAYERS
 SOLVING FOR ZETA FOR LAYER     1 ZONE     2

     786 UPPER PART EQS.       792 LOWER PART EQS.    BAND WIDTH + 1 =   33
 STRESS PERIOD=  1 TIMESTEP=214 LAYER=  1 ZONE=  2 ACTIVE CELLS= 1578 NUMBER OF EQUATIONS=    1578
 SOLVING FOR ZETA FOR LAYER     2 ZONE     2

     221 UPPER PART EQS.       212 LOWER PART EQS.    BAND WIDTH + 1 =   22
 STRESS PERIOD=  1 TIMESTEP=214 LAYER=  2 ZONE=  2 ACTIVE CELLS=  433 NUMBER OF EQUATIONS=     433
 UBUDSV SAVING "      ZETASRF  1" ON UNIT 55 AT TIME STEP214, STRESS PERIOD    1

 HEAD WILL BE SAVED ON UNIT   51 AT END OF TIME STEP  214, STRESS PERIOD    1
 
 SOLVING FOR HEAD 
                                                   Max.-Head-Change                         Max.-Flux-Residual
  Residual-Control   Outer-Iter.   Inner-Iter.     Column Row Layer    Maximum-Head-Change  Column Row Layer    Maximum-Flux-Residual          L2-NORM 
          0                 1           1            31   43     2      -0.7811283737E-03      41   38    2        -0.5077026861E+00      0.4456282722E+01
          0                 2           1            37   26     1       0.1112441747E-03      23   21    2        -0.2058847302E-01      0.2464958973E+00
          0                 3           1            31   28     1       0.1287050540E-03      31   26    1         0.5758270663E-02      0.8440003616E-01
          0                 4           1            31   31     2       0.6564968491E-04      32   33    1         0.4374210498E-02      0.5141830321E-01
          0                 5           1            32   32     2       0.6007558896E-04      33   31    2         0.2884170789E-02      0.3423279702E-01
          0                 6           1            32   31     1       0.3312762733E-04      37   27    2         0.2086303376E-02      0.2507077563E-01
          0                 7           1            32   32     2       0.3122350247E-04      34   30    2         0.1530937006E-02      0.1936050043E-01
          0                 8           1            31   30     1       0.2136904325E-04      36   28    2         0.1240452891E-02      0.1625377200E-01
          0                 9           1            29   32     1       0.1942462190E-04      39   25    2         0.1017412697E-02      0.1393595404E-01
          0                10           1            31   30     1       0.1543413814E-04      36   28    2         0.8567164838E-03      0.1251327164E-01
                                                   Max.-Head-Change                         Max.-Flux-Residual
  Residual-Control   Outer-Iter.   Inner-Iter.     Column Row Layer    Maximum-Head-Change  Column Row Layer    Maximum-Flux-Residual          L2-NORM 
          0                11           1            29   32     1       0.1374428557E-04      39   25    2         0.7765998375E-03      0.1117368343E-01
          0                12           1            31   30     1       0.1168247868E-04      36   28    2         0.6561740702E-03      0.1016791527E-01
          0                13           1            29   32     1       0.1049002857E-04      39   25    2         0.6161166009E-03      0.9165073860E-02
          0                14           1            31   30     1       0.9159621128E-05      36   28    2         0.5313052293E-03      0.8342652014E-02

    ------------------------------------------------
       NWT REQUIRED           14 OUTER ITERATIONS 
       AND A TOTAL OF         14 INNER ITERATIONS.
    ------------------------------------------------

 OUTPUT CONTROL FOR STRESS PERIOD    1   TIME STEP  215
    SAVE HEAD FOR ALL LAYERS
 SOLVING FOR ZETA FOR LAYER     1 ZONE     2

     810 UPPER PART EQS.       790 LOWER PART EQS.    BAND WIDTH + 1 =   39
 STRESS PERIOD=  1 TIMESTEP=215 LAYER=  1 ZONE=  2 ACTIVE CELLS= 1600 NUMBER OF EQUATIONS=    1600
 SOLVING FOR ZETA FOR LAYER     2 ZONE     2

     221 UPPER PART EQS.       224 LOWER PART EQS.    BAND WIDTH + 1 =   20
 STRESS PERIOD=  1 TIMESTEP=215 LAYER=  2 ZONE=  2 ACTIVE CELLS=  445 NUMBER OF EQUATIONS=     445
 UBUDSV SAVING "      ZETASRF  1" ON UNIT 55 AT TIME STEP215, STRESS PERIOD    1

 HEAD WILL BE SAVED ON UNIT   51 AT END OF TIME STEP  215, STRESS PERIOD    1
 
 SOLVING FOR HEAD 
                                                   Max.-Head-Change                         Max.-Flux-Residual
  Residual-Control   Outer-Iter.   Inner-Iter.     Column Row Layer    Maximum-Head-Change  Column Row Layer    Maximum-Flux-Residual          L2-NORM 
          0                 1           1            19   33     2      -0.7611518175E-03       9   50    1         0.6302816174E+00      0.4972646309E+01
          0                 2           1            35   24     1       0.1091632602E-03      23   21    2        -0.2117978163E-01      0.2458227602E+00
          0                 3           1            30   27     1       0.1276305820E-03      31   26    1         0.5857583684E-02      0.7998019407E-01
          0                 4           1            31   31     2       0.6715193869E-04      32   33    1         0.4326804933E-02      0.5017983992E-01
          0                 5           1            32   32     2       0.5935045239E-04      33   31    2         0.2931069308E-02      0.3478990220E-01
          0                 6           1            31   32     1       0.3672882436E-04      37   31    2         0.2136888955E-02      0.2656248694E-01
          0                 7           1            33   31     2       0.3134620556E-04      23   37    2         0.1724534402E-02      0.2139196523E-01
          0                 8           1            31   30     1       0.2615489101E-04      36   28    2         0.1344954862E-02      0.1834089766E-01
          0                 9           1            33   31     2       0.1962653297E-04      23   37    2         0.1298867914E-02      0.1611411783E-01
          0                10           1            31   30     1       0.1970680945E-04      23   37    2         0.9629430971E-03      0.1437757353E-01
                                                   Max.-Head-Change                         Max.-Flux-Residual
  Residual-Control   Outer-Iter.   Inner-Iter.     Column Row Layer    Maximum-Head-Change  Column Row Layer    Maximum-Flux-Residual          L2-NORM 
          0                11           1            33   31     2       0.1429762809E-04      23   37    2         0.1015597897E-02      0.1305286602E-01
          0                12           1            31   30     1       0.1476777723E-04      23   37    2         0.7768298896E-03      0.1169888041E-01
          0                13           1            33   31     2       0.1129942272E-04      23   37    2         0.7974107056E-03      0.1068040961E-01
          0                14           1            31   30     1       0.1141580739E-04      22   38    2         0.6444247147E-03      0.9599726424E-02
          0                15           1            33   29     2       0.9212669211E-05      23   37    2         0.6315696166E-03      0.8751542999E-02

    ------------------------------------------------
       NWT REQUIRED           15 OUTER ITERATIONS 
       AND A TOTAL OF         15 INNER ITERATIONS.
    ------------------------------------------------

 OUTPUT CONTROL FOR STRESS PERIOD    1   TIME STEP  216
    SAVE HEAD FOR ALL LAYERS
 SOLVING FOR ZETA FOR LAYER     1 ZONE     2

     798 UPPER PART EQS.       808 LOWER PART EQS.    BAND WIDTH + 1 =   33
 STRESS PERIOD=  1 TIMESTEP=216 LAYER=  1 ZONE=  2 ACTIVE CELLS= 1606 NUMBER OF EQUATIONS=    1606
 SOLVING FOR ZETA FOR LAYER     2 ZONE     2

     221 UPPER PART EQS.       232 LOWER PART EQS.    BAND WIDTH + 1 =   22
 STRESS PERIOD=  1 TIMESTEP=216 LAYER=  2 ZONE=  2 ACTIVE CELLS=  453 NUMBER OF EQUATIONS=     453
 UBUDSV SAVING "      ZETASRF  1" ON UNIT 55 AT TIME STEP216, STRESS PERIOD    1

 HEAD WILL BE SAVED ON UNIT   51 AT END OF TIME STEP  216, STRESS PERIOD    1
 
 SOLVING FOR HEAD 
                                                   Max.-Head-Change                         Max.-Flux-Residual
  Residual-Control   Outer-Iter.   Inner-Iter.     Column Row Layer    Maximum-Head-Change  Column Row Layer    Maximum-Flux-Residual          L2-NORM 
          0                 1           1            19   31     2      -0.7600004399E-03      40   22    2        -0.4921804081E+00      0.4628746241E+01
          0                 2           1            37   26     1       0.1078067475E-03      24   20    2        -0.2091645514E-01      0.2441518639E+00
          0                 3           1            30   27     1       0.1192219581E-03      28   25    1         0.5893203741E-02      0.7799115815E-01
          0                 4           1            31   32     1       0.7573625121E-04      32   33    1         0.4451350735E-02      0.5232972218E-01
          0                 5           1            32   32     2       0.6113807529E-04      22   34    2         0.3175338972E-02      0.3911214961E-01
          0                 6           1            32   31     1       0.4593675176E-04      37   27    2         0.2428036976E-02      0.3175443549E-01
          0                 7           1            33   31     2       0.3547489223E-04      22   34    2         0.2308958790E-02      0.2700284882E-01
          0                 8           1            31   30     1       0.3381366241E-04      21   31    2         0.1699150728E-02      0.2365086814E-01
          0                 9           1            33   31     2       0.2417286380E-04      22   34    2         0.1772271625E-02      0.2124577905E-01
          0                10           1            31   30     1       0.2521702289E-04      21   31    2         0.1345574902E-02      0.1893866822E-01
                                                   Max.-Head-Change                         Max.-Flux-Residual
  Residual-Control   Outer-Iter.   Inner-Iter.     Column Row Layer    Maximum-Head-Change  Column Row Layer    Maximum-Flux-Residual          L2-NORM 
          0                11           1            28   33     1       0.1852054317E-04      23   37    2         0.1386146077E-02      0.1727046018E-01
          0                12           1            31   30     1       0.1914096279E-04      21   31    2         0.1082443507E-02      0.1545641598E-01
          0                13           1            33   29     2       0.1491624013E-04      23   37    2         0.1098163949E-02      0.1410698059E-01
          0                14           1            31   30     1       0.1501431918E-04      21   31    2         0.8817838617E-03      0.1267503035E-01
          0                15           1            33   29     2       0.1225919097E-04      23   37    2         0.8756438481E-03      0.1154934327E-01
          0                16           1            31   30     1       0.1204378238E-04      21   31    2         0.7228394646E-03      0.1040922080E-01
          0                17           1            29   32     1       0.1015995107E-04      23   37    2         0.7020127451E-03      0.9471463062E-02
          0                18           1            32   29     1       0.9823576407E-05      21   31    2         0.5941733194E-03      0.8553912954E-02

    ------------------------------------------------
       NWT REQUIRED           18 OUTER ITERATIONS 
       AND A TOTAL OF         18 INNER ITERATIONS.
    ------------------------------------------------

 OUTPUT CONTROL FOR STRESS PERIOD    1   TIME STEP  217
    SAVE HEAD FOR ALL LAYERS
 SOLVING FOR ZETA FOR LAYER     1 ZONE     2

     800 UPPER PART EQS.       784 LOWER PART EQS.    BAND WIDTH + 1 =   35
 STRESS PERIOD=  1 TIMESTEP=217 LAYER=  1 ZONE=  2 ACTIVE CELLS= 1584 NUMBER OF EQUATIONS=    1584
 SOLVING FOR ZETA FOR LAYER     2 ZONE     2

     229 UPPER PART EQS.       232 LOWER PART EQS.    BAND WIDTH + 1 =   22
 STRESS PERIOD=  1 TIMESTEP=217 LAYER=  2 ZONE=  2 ACTIVE CELLS=  461 NUMBER OF EQUATIONS=     461
 UBUDSV SAVING "      ZETASRF  1" ON UNIT 55 AT TIME STEP217, STRESS PERIOD    1

 HEAD WILL BE SAVED ON UNIT   51 AT END OF TIME STEP  217, STRESS PERIOD    1
 
 SOLVING FOR HEAD 
                                                   Max.-Head-Change                         Max.-Flux-Residual
  Residual-Control   Outer-Iter.   Inner-Iter.     Column Row Layer    Maximum-Head-Change  Column Row Layer    Maximum-Flux-Residual          L2-NORM 
          0                 1           1            19   31     2      -0.7573413903E-03      39   22    2         0.4999160631E+00      0.4712714215E+01
          0                 2           1            37   26     1       0.1071316579E-03      24   20    2        -0.2088066449E-01      0.2476357647E+00
          0                 3           1            30   27     1       0.1153005011E-03      28   25    1         0.5707613809E-02      0.8041562224E-01
          0                 4           1            31   31     2       0.6968700007E-04      32   33    1         0.4299103357E-02      0.5032523471E-01
          0                 5           1            31   31     2       0.5946225889E-04      33   31    2         0.2931521369E-02      0.3577498358E-01
          0                 6           1            32   31     1       0.3976391107E-04      37   27    2         0.2213215918E-02      0.2782959230E-01
          0                 7           1            29   32     1       0.3209957271E-04      23   37    2         0.1884067311E-02      0.2295641619E-01
          0                 8           1            31   30     1       0.2895029588E-04      37   27    2         0.1404199310E-02      0.1982696415E-01
          0                 9           1            29   32     1       0.2026963525E-04      23   37    2         0.1446542853E-02      0.1766837483E-01
          0                10           1            31   30     1       0.2198081784E-04      23   37    2         0.1033340676E-02      0.1569423995E-01
                                                   Max.-Head-Change                         Max.-Flux-Residual
  Residual-Control   Outer-Iter.   Inner-Iter.     Column Row Layer    Maximum-Head-Change  Column Row Layer    Maximum-Flux-Residual          L2-NORM 
          0                11           1            28   33     1       0.1490623662E-04      23   37    2         0.1140293692E-02      0.1437749853E-01
          0                12           1            31   30     1       0.1650545960E-04      23   37    2         0.8292486486E-03      0.1277920527E-01
          0                13           1            29   32     1       0.1187793736E-04      23   37    2         0.8981494545E-03      0.1175110809E-01
          0                14           1            31   30     1       0.1274909302E-04      22   38    2         0.6867026340E-03      0.1047664970E-01
          0                15           1            29   32     1       0.9745385663E-05      23   37    2         0.7122553681E-03      0.9611605230E-02

    ------------------------------------------------
       NWT REQUIRED           15 OUTER ITERATIONS 
       AND A TOTAL OF         15 INNER ITERATIONS.
    ------------------------------------------------

 OUTPUT CONTROL FOR STRESS PERIOD    1   TIME STEP  218
    SAVE HEAD FOR ALL LAYERS
 SOLVING FOR ZETA FOR LAYER     1 ZONE     2

     768 UPPER PART EQS.       772 LOWER PART EQS.    BAND WIDTH + 1 =   29
 STRESS PERIOD=  1 TIMESTEP=218 LAYER=  1 ZONE=  2 ACTIVE CELLS= 1540 NUMBER OF EQUATIONS=    1540
 SOLVING FOR ZETA FOR LAYER     2 ZONE     2

     229 UPPER PART EQS.       232 LOWER PART EQS.    BAND WIDTH + 1 =   22
 STRESS PERIOD=  1 TIMESTEP=218 LAYER=  2 ZONE=  2 ACTIVE CELLS=  461 NUMBER OF EQUATIONS=     461
 UBUDSV SAVING "      ZETASRF  1" ON UNIT 55 AT TIME STEP218, STRESS PERIOD    1

 HEAD WILL BE SAVED ON UNIT   51 AT END OF TIME STEP  218, STRESS PERIOD    1
 
 SOLVING FOR HEAD 
                                                   Max.-Head-Change                         Max.-Flux-Residual
  Residual-Control   Outer-Iter.   Inner-Iter.     Column Row Layer    Maximum-Head-Change  Column Row Layer    Maximum-Flux-Residual          L2-NORM 
          0                 1           1            20   37     2      -0.7456338473E-03      38   41    2         0.5284531892E+00      0.4956793617E+01
          0                 2           1            26   23     1       0.1065821224E-03      37   43    2        -0.2024684698E-01      0.2437566186E+00
          0                 3           1            30   27     1       0.1237461735E-03      28   25    1         0.5614785174E-02      0.8706332826E-01
          0                 4           1            31   31     2       0.6265561320E-04      32   33    1         0.4226767557E-02      0.5305784732E-01
          0                 5           1            31   31     2       0.6108318577E-04      34   30    2         0.2824845423E-02      0.3462194656E-01
          0                 6           1            31   30     1       0.3133424725E-04      37   27    2         0.2105582414E-02      0.2465715232E-01
          0                 7           1            31   31     2       0.3128345343E-04      34   30    2         0.1494509080E-02      0.1856128773E-01
          0                 8           1            31   30     1       0.1979353791E-04      37   27    2         0.1217577343E-02      0.1516370639E-01
          0                 9           1            29   32     1       0.1888193065E-04      34   30    2         0.9222174504E-03      0.1285294831E-01
          0                10           1            31   30     1       0.1447023790E-04      37   27    2         0.8048237056E-03      0.1140417030E-01
                                                   Max.-Head-Change                         Max.-Flux-Residual
  Residual-Control   Outer-Iter.   Inner-Iter.     Column Row Layer    Maximum-Head-Change  Column Row Layer    Maximum-Flux-Residual          L2-NORM 
          0                11           1            29   32     1       0.1278623384E-04      39   25    2         0.6906121150E-03      0.1017735400E-01
          0                12           1            31   30     1       0.1109397437E-04      22   38    2         0.6134298845E-03      0.9205174482E-02
          0                13           1            29   32     1       0.9596714491E-05      24   40    2         0.5529623146E-03      0.8339447528E-02

    ------------------------------------------------
       NWT REQUIRED           13 OUTER ITERATIONS 
       AND A TOTAL OF         13 INNER ITERATIONS.
    ------------------------------------------------

 OUTPUT CONTROL FOR STRESS PERIOD    1   TIME STEP  219
    SAVE HEAD FOR ALL LAYERS
 SOLVING FOR ZETA FOR LAYER     1 ZONE     2

     808 UPPER PART EQS.       804 LOWER PART EQS.    BAND WIDTH + 1 =   31
 STRESS PERIOD=  1 TIMESTEP=219 LAYER=  1 ZONE=  2 ACTIVE CELLS= 1612 NUMBER OF EQUATIONS=    1612
 SOLVING FOR ZETA FOR LAYER     2 ZONE     2

     237 UPPER PART EQS.       242 LOWER PART EQS.    BAND WIDTH + 1 =   21
 STRESS PERIOD=  1 TIMESTEP=219 LAYER=  2 ZONE=  2 ACTIVE CELLS=  479 NUMBER OF EQUATIONS=     479
 UBUDSV SAVING "      ZETASRF  1" ON UNIT 55 AT TIME STEP219, STRESS PERIOD    1

 HEAD WILL BE SAVED ON UNIT   51 AT END OF TIME STEP  219, STRESS PERIOD    1
 
 SOLVING FOR HEAD 
                                                   Max.-Head-Change                         Max.-Flux-Residual
  Residual-Control   Outer-Iter.   Inner-Iter.     Column Row Layer    Maximum-Head-Change  Column Row Layer    Maximum-Flux-Residual          L2-NORM 
          0                 1           1            20   38     2      -0.7260153959E-03      40   40    2         0.4755245504E+00      0.3872655127E+01
          0                 2           1            25   24     1       0.1012403220E-03      36   44    2        -0.1845941843E-01      0.2258344266E+00
          0                 3           1            30   27     1       0.1084882593E-03      28   25    1         0.5468719613E-02      0.7205177486E-01
          0                 4           1            31   31     2       0.7067949171E-04      32   33    1         0.4112169776E-02      0.4907724845E-01
          0                 5           1            32   32     2       0.6110094044E-04      34   30    2         0.2941865948E-02      0.3792376179E-01
          0                 6           1            32   31     1       0.4418172763E-04      37   27    2         0.2415374732E-02      0.3183715271E-01
          0                 7           1            29   32     1       0.3673485005E-04      23   37    2         0.2054619013E-02      0.2755155396E-01
          0                 8           1            32   31     1       0.3261264313E-04      37   27    2         0.1670604567E-02      0.2460290312E-01
          0                 9           1            29   32     1       0.2565167188E-04      23   37    2         0.1601633806E-02      0.2210864794E-01
          0                10           1            32   31     1       0.2461170051E-04      37   27    2         0.1284049387E-02      0.1994516255E-01
                                                   Max.-Head-Change                         Max.-Flux-Residual
  Residual-Control   Outer-Iter.   Inner-Iter.     Column Row Layer    Maximum-Head-Change  Column Row Layer    Maximum-Flux-Residual          L2-NORM 
          0                11           1            28   33     1       0.1982513171E-04      23   37    2         0.1272208372E-02      0.1808725266E-01
          0                12           1            32   29     1       0.1902065109E-04      37   27    2         0.1041178873E-02      0.1633729899E-01
          0                13           1            29   32     1       0.1597403869E-04      23   37    2         0.1010296925E-02      0.1482282842E-01
          0                14           1            32   29     1       0.1521273708E-04      37   27    2         0.8603432818E-03      0.1340871270E-01
          0                15           1            29   32     1       0.1311025670E-04      23   37    2         0.8006373428E-03      0.1215617347E-01
          0                16           1            32   29     1       0.1238288057E-04      37   27    2         0.7140180618E-03      0.1100887757E-01
          0                17           1            29   32     1       0.1081051217E-04      39   25    2         0.6424154410E-03      0.9977257404E-02
          0                18           1            32   29     1       0.1017996212E-04      37   27    2         0.5922290535E-03      0.9039637176E-02
          0                19           1            29   32     1       0.8916195935E-05      39   25    2         0.5250840059E-03      0.8194988593E-02

    ------------------------------------------------
       NWT REQUIRED           19 OUTER ITERATIONS 
       AND A TOTAL OF         19 INNER ITERATIONS.
    ------------------------------------------------

 OUTPUT CONTROL FOR STRESS PERIOD    1   TIME STEP  220
    SAVE HEAD FOR ALL LAYERS
 SOLVING FOR ZETA FOR LAYER     1 ZONE     2

     772 UPPER PART EQS.       776 LOWER PART EQS.    BAND WIDTH + 1 =   31
 STRESS PERIOD=  1 TIMESTEP=220 LAYER=  1 ZONE=  2 ACTIVE CELLS= 1548 NUMBER OF EQUATIONS=    1548
 SOLVING FOR ZETA FOR LAYER     2 ZONE     2

     253 UPPER PART EQS.       256 LOWER PART EQS.    BAND WIDTH + 1 =   22
 STRESS PERIOD=  1 TIMESTEP=220 LAYER=  2 ZONE=  2 ACTIVE CELLS=  509 NUMBER OF EQUATIONS=     509
 UBUDSV SAVING "      ZETASRF  1" ON UNIT 55 AT TIME STEP220, STRESS PERIOD    1

 HEAD WILL BE SAVED ON UNIT   51 AT END OF TIME STEP  220, STRESS PERIOD    1
 
 SOLVING FOR HEAD 
                                                   Max.-Head-Change                         Max.-Flux-Residual
  Residual-Control   Outer-Iter.   Inner-Iter.     Column Row Layer    Maximum-Head-Change  Column Row Layer    Maximum-Flux-Residual          L2-NORM 
          0                 1           1            20   38     2      -0.7296934585E-03       9   50    1        -0.4630306495E+00      0.4637421372E+01
          0                 2           1            38   25     1       0.1026868382E-03      36   44    2        -0.1898363679E-01      0.2303494358E+00
          0                 3           1            32   27     1       0.1117449799E-03      28   25    1         0.5344115480E-02      0.7956973544E-01
          0                 4           1            31   31     2       0.6426742384E-04      32   33    1         0.4034909386E-02      0.4971919849E-01
          0                 5           1            31   31     2       0.6015055847E-04      33   31    2         0.2795013949E-02      0.3470390056E-01
          0                 6           1            32   31     1       0.3548610063E-04      37   27    2         0.2196453474E-02      0.2652938956E-01
          0                 7           1            29   32     1       0.3361955471E-04      34   30    2         0.1579406041E-02      0.2148851578E-01
          0                 8           1            32   31     1       0.2422704212E-04      37   27    2         0.1393487743E-02      0.1850282430E-01
          0                 9           1            29   32     1       0.2168057571E-04      41   35    2         0.1156132724E-02      0.1626080647E-01
          0                10           1            32   31     1       0.1803906763E-04      37   27    2         0.1005690009E-02      0.1465175170E-01
                                                   Max.-Head-Change                         Max.-Flux-Residual
  Residual-Control   Outer-Iter.   Inner-Iter.     Column Row Layer    Maximum-Head-Change  Column Row Layer    Maximum-Flux-Residual          L2-NORM 
          0                11           1            29   32     1       0.1558495281E-04      41   35    2         0.9335753457E-03      0.1321451323E-01
          0                12           1            32   29     1       0.1398510434E-04      37   27    2         0.7920169982E-03      0.1197042293E-01
          0                13           1            29   32     1       0.1207835513E-04      41   35    2         0.7537126141E-03      0.1085605042E-01
          0                14           1            32   29     1       0.1113007394E-04      37   27    2         0.6488177768E-03      0.9828726884E-02
          0                15           1            29   32     1       0.9714783991E-05      41   35    2         0.6089288919E-03      0.8916901336E-02

    ------------------------------------------------
       NWT REQUIRED           15 OUTER ITERATIONS 
       AND A TOTAL OF         15 INNER ITERATIONS.
    ------------------------------------------------

 OUTPUT CONTROL FOR STRESS PERIOD    1   TIME STEP  221
    SAVE HEAD FOR ALL LAYERS
 SOLVING FOR ZETA FOR LAYER     1 ZONE     2

     798 UPPER PART EQS.       772 LOWER PART EQS.    BAND WIDTH + 1 =   37
 STRESS PERIOD=  1 TIMESTEP=221 LAYER=  1 ZONE=  2 ACTIVE CELLS= 1570 NUMBER OF EQUATIONS=    1570
 SOLVING FOR ZETA FOR LAYER     2 ZONE     2

     257 UPPER PART EQS.       256 LOWER PART EQS.    BAND WIDTH + 1 =   22
 STRESS PERIOD=  1 TIMESTEP=221 LAYER=  2 ZONE=  2 ACTIVE CELLS=  513 NUMBER OF EQUATIONS=     513
 UBUDSV SAVING "      ZETASRF  1" ON UNIT 55 AT TIME STEP221, STRESS PERIOD    1

 HEAD WILL BE SAVED ON UNIT   51 AT END OF TIME STEP  221, STRESS PERIOD    1
 
 SOLVING FOR HEAD 
                                                   Max.-Head-Change                         Max.-Flux-Residual
  Residual-Control   Outer-Iter.   Inner-Iter.     Column Row Layer    Maximum-Head-Change  Column Row Layer    Maximum-Flux-Residual          L2-NORM 
          0                 1           1            19   36     2      -0.7057251997E-03      12   53    1         0.6227434492E+00      0.5035119204E+01
          0                 2           1            25   24     1       0.9971199750E-04      36   44    2        -0.1777997962E-01      0.2237082447E+00
          0                 3           1            31   26     1       0.1065068919E-03      28   25    1         0.5155667868E-02      0.7544677430E-01
          0                 4           1            31   31     2       0.6145131202E-04      32   33    1         0.3836204971E-02      0.4694403768E-01
          0                 5           1            31   31     2       0.5793063667E-04      33   31    2         0.2705587287E-02      0.3320797386E-01
          0                 6           1            32   31     1       0.3489364803E-04      37   27    2         0.2037987755E-02      0.2578812350E-01
          0                 7           1            31   31     2       0.3240133586E-04      34   30    2         0.1532249974E-02      0.2120136953E-01
          0                 8           1            32   31     1       0.2438953892E-04      37   27    2         0.1316932631E-02      0.1845628462E-01
          0                 9           1            29   32     1       0.2083331147E-04      21   31    2         0.1121681269E-02      0.1629705050E-01
          0                10           1            32   29     1       0.1842205294E-04      37   27    2         0.9633038086E-03      0.1470070910E-01
                                                   Max.-Head-Change                         Max.-Flux-Residual
  Residual-Control   Outer-Iter.   Inner-Iter.     Column Row Layer    Maximum-Head-Change  Column Row Layer    Maximum-Flux-Residual          L2-NORM 
          0                11           1            29   32     1       0.1505194087E-04      41   35    2         0.8764761335E-03      0.1328865821E-01
          0                12           1            32   29     1       0.1429807585E-04      37   27    2         0.7643350253E-03      0.1200920095E-01
          0                13           1            29   32     1       0.1177907825E-04      41   35    2         0.7051822743E-03      0.1091145553E-01
          0                14           1            32   29     1       0.1131784564E-04      37   27    2         0.6293181751E-03      0.9856096113E-02
          0                15           1            29   32     1       0.9551912453E-05      41   35    2         0.5676784418E-03      0.8953185912E-02

    ------------------------------------------------
       NWT REQUIRED           15 OUTER ITERATIONS 
       AND A TOTAL OF         15 INNER ITERATIONS.
    ------------------------------------------------

 OUTPUT CONTROL FOR STRESS PERIOD    1   TIME STEP  222
    SAVE HEAD FOR ALL LAYERS
 SOLVING FOR ZETA FOR LAYER     1 ZONE     2

     764 UPPER PART EQS.       796 LOWER PART EQS.    BAND WIDTH + 1 =   45
 STRESS PERIOD=  1 TIMESTEP=222 LAYER=  1 ZONE=  2 ACTIVE CELLS= 1560 NUMBER OF EQUATIONS=    1560
 SOLVING FOR ZETA FOR LAYER     2 ZONE     2

     269 UPPER PART EQS.       256 LOWER PART EQS.    BAND WIDTH + 1 =   24
 STRESS PERIOD=  1 TIMESTEP=222 LAYER=  2 ZONE=  2 ACTIVE CELLS=  525 NUMBER OF EQUATIONS=     525
 UBUDSV SAVING "      ZETASRF  1" ON UNIT 55 AT TIME STEP222, STRESS PERIOD    1

 HEAD WILL BE SAVED ON UNIT   51 AT END OF TIME STEP  222, STRESS PERIOD    1
 
 SOLVING FOR HEAD 
                                                   Max.-Head-Change                         Max.-Flux-Residual
  Residual-Control   Outer-Iter.   Inner-Iter.     Column Row Layer    Maximum-Head-Change  Column Row Layer    Maximum-Flux-Residual          L2-NORM 
          0                 1           1            19   36     2      -0.7097628579E-03      52   52    1         0.4807220040E+00      0.4236345473E+01
          0                 2           1            37   24     1       0.9888963195E-04      35   45    2        -0.1728012644E-01      0.2204336513E+00
          0                 3           1            34   27     1       0.1056704713E-03      28   25    1         0.5148558147E-02      0.7550977983E-01
          0                 4           1            31   31     2       0.6682905316E-04      32   33    1         0.3983598307E-02      0.5025629996E-01
          0                 5           1            31   31     2       0.6218920985E-04      34   30    2         0.2875173325E-02      0.3746135485E-01
          0                 6           1            32   31     1       0.4058396589E-04      37   27    2         0.2270886050E-02      0.3051534068E-01
          0                 7           1            31   31     2       0.3713491936E-04      21   35    2         0.1894557268E-02      0.2592382488E-01
          0                 8           1            32   31     1       0.2965050422E-04      37   27    2         0.1571290096E-02      0.2296400788E-01
          0                 9           1            29   32     1       0.2481321520E-04      21   35    2         0.1498147557E-02      0.2052588851E-01
          0                10           1            32   29     1       0.2258985231E-04      37   27    2         0.1203240867E-02      0.1851585192E-01
                                                   Max.-Head-Change                         Max.-Flux-Residual
  Residual-Control   Outer-Iter.   Inner-Iter.     Column Row Layer    Maximum-Head-Change  Column Row Layer    Maximum-Flux-Residual          L2-NORM 
          0                11           1            29   32     1       0.1854088397E-04      21   35    2         0.1193735816E-02      0.1679624715E-01
          0                12           1            32   29     1       0.1757230760E-04      21   35    2         0.9834785989E-03      0.1515297641E-01
          0                13           1            34   30     2       0.1482150252E-04      21   35    2         0.9492459047E-03      0.1376966945E-01
          0                14           1            32   29     1       0.1394878241E-04      37   27    2         0.8187083442E-03      0.1243811706E-01
          0                15           1            34   30     2       0.1213724454E-04      21   35    2         0.7580447974E-03      0.1128449602E-01
          0                16           1            32   29     1       0.1127420912E-04      37   27    2         0.6859470708E-03      0.1021456673E-01
          0                17           1            34   30     2       0.9997511309E-05      21   35    2         0.6090450975E-03      0.9252778832E-02

    ------------------------------------------------
       NWT REQUIRED           17 OUTER ITERATIONS 
       AND A TOTAL OF         17 INNER ITERATIONS.
    ------------------------------------------------

 OUTPUT CONTROL FOR STRESS PERIOD    1   TIME STEP  223
    SAVE HEAD FOR ALL LAYERS
 SOLVING FOR ZETA FOR LAYER     1 ZONE     2

     764 UPPER PART EQS.       764 LOWER PART EQS.    BAND WIDTH + 1 =   35
 STRESS PERIOD=  1 TIMESTEP=223 LAYER=  1 ZONE=  2 ACTIVE CELLS= 1528 NUMBER OF EQUATIONS=    1528
 SOLVING FOR ZETA FOR LAYER     2 ZONE     2

     269 UPPER PART EQS.       256 LOWER PART EQS.    BAND WIDTH + 1 =   24
 STRESS PERIOD=  1 TIMESTEP=223 LAYER=  2 ZONE=  2 ACTIVE CELLS=  525 NUMBER OF EQUATIONS=     525
 UBUDSV SAVING "      ZETASRF  1" ON UNIT 55 AT TIME STEP223, STRESS PERIOD    1

 HEAD WILL BE SAVED ON UNIT   51 AT END OF TIME STEP  223, STRESS PERIOD    1
 
 SOLVING FOR HEAD 
                                                   Max.-Head-Change                         Max.-Flux-Residual
  Residual-Control   Outer-Iter.   Inner-Iter.     Column Row Layer    Maximum-Head-Change  Column Row Layer    Maximum-Flux-Residual          L2-NORM 
          0                 1           1            22   41     2      -0.6949049866E-03      42   23    2        -0.4389406111E+00      0.4028499733E+01
          0                 2           1            25   24     1       0.1001337816E-03      35   45    2        -0.1762819082E-01      0.2260352787E+00
          0                 3           1            31   26     1       0.1045668811E-03      28   25    1         0.5182513905E-02      0.7927582483E-01
          0                 4           1            31   31     2       0.6088893798E-04      32   33    1         0.3782435438E-02      0.4812409791E-01
          0                 5           1            31   31     2       0.5733968481E-04      33   31    2         0.2695384065E-02      0.3323641685E-01
          0                 6           1            32   31     1       0.3446818662E-04      33   32    1         0.1936277617E-02      0.2514094934E-01
          0                 7           1            31   31     2       0.3112070299E-04      34   30    2         0.1500341011E-02      0.2023134487E-01
          0                 8           1            32   31     1       0.2349321316E-04      37   27    2         0.1236651262E-02      0.1729989268E-01
          0                 9           1            29   32     1       0.1984264549E-04      22   38    2         0.1085864307E-02      0.1519953386E-01
          0                10           1            32   29     1       0.1734496571E-04      37   27    2         0.9025138581E-03      0.1362585073E-01
                                                   Max.-Head-Change                         Max.-Flux-Residual
  Residual-Control   Outer-Iter.   Inner-Iter.     Column Row Layer    Maximum-Head-Change  Column Row Layer    Maximum-Flux-Residual          L2-NORM 
          0                11           1            29   32     1       0.1427033094E-04      22   38    2         0.8714353830E-03      0.1232348267E-01
          0                12           1            32   29     1       0.1330956518E-04      37   27    2         0.7168341581E-03      0.1111915290E-01
          0                13           1            29   32     1       0.1105332112E-04      22   38    2         0.6946172638E-03      0.1011365294E-01
          0                14           1            32   29     1       0.1051513783E-04      37   27    2         0.5916526532E-03      0.9126651620E-02
          0                15           1            29   32     1       0.8868111257E-05      22   38    2         0.5532705426E-03      0.8301770781E-02

    ------------------------------------------------
       NWT REQUIRED           15 OUTER ITERATIONS 
       AND A TOTAL OF         15 INNER ITERATIONS.
    ------------------------------------------------

 OUTPUT CONTROL FOR STRESS PERIOD    1   TIME STEP  224
    SAVE HEAD FOR ALL LAYERS
 SOLVING FOR ZETA FOR LAYER     1 ZONE     2

     792 UPPER PART EQS.       772 LOWER PART EQS.    BAND WIDTH + 1 =   41
 STRESS PERIOD=  1 TIMESTEP=224 LAYER=  1 ZONE=  2 ACTIVE CELLS= 1564 NUMBER OF EQUATIONS=    1564
 SOLVING FOR ZETA FOR LAYER     2 ZONE     2

     269 UPPER PART EQS.       268 LOWER PART EQS.    BAND WIDTH + 1 =   22
 STRESS PERIOD=  1 TIMESTEP=224 LAYER=  2 ZONE=  2 ACTIVE CELLS=  537 NUMBER OF EQUATIONS=     537
 UBUDSV SAVING "      ZETASRF  1" ON UNIT 55 AT TIME STEP224, STRESS PERIOD    1

 HEAD WILL BE SAVED ON UNIT   51 AT END OF TIME STEP  224, STRESS PERIOD    1
 
 SOLVING FOR HEAD 
                                                   Max.-Head-Change                         Max.-Flux-Residual
  Residual-Control   Outer-Iter.   Inner-Iter.     Column Row Layer    Maximum-Head-Change  Column Row Layer    Maximum-Flux-Residual          L2-NORM 
          0                 1           1            18   32     2      -0.6981316969E-03       9   50    1         0.4756848314E+00      0.3875792110E+01
          0                 2           1            38   25     1       0.9353123743E-04      35   45    2        -0.1703101336E-01      0.2168344906E+00
          0                 3           1            31   26     1       0.1036815384E-03      28   25    1         0.4989683478E-02      0.7304485493E-01
          0                 4           1            31   32     1       0.6540883052E-04      32   33    1         0.3899270604E-02      0.4886877432E-01
          0                 5           1            31   31     2       0.6024434558E-04      34   30    2         0.2811293013E-02      0.3648604824E-01
          0                 6           1            32   31     1       0.4008916748E-04      38   30    2         0.2260879303E-02      0.2988164509E-01
          0                 7           1            31   31     2       0.3573914625E-04      21   35    2         0.1881931064E-02      0.2534029909E-01
          0                 8           1            32   31     1       0.2956602070E-04      38   30    2         0.1548033667E-02      0.2251380095E-01
          0                 9           1            29   32     1       0.2400623598E-04      21   35    2         0.1485847682E-02      0.2007653312E-01
          0                10           1            32   31     1       0.2254394512E-04      20   32    2         0.1186576400E-02      0.1815116236E-01
                                                   Max.-Head-Change                         Max.-Flux-Residual
  Residual-Control   Outer-Iter.   Inner-Iter.     Column Row Layer    Maximum-Head-Change  Column Row Layer    Maximum-Flux-Residual          L2-NORM 
          0                11           1            34   30     2       0.1810213107E-04      21   35    2         0.1182165482E-02      0.1642382242E-01
          0                12           1            32   29     1       0.1745172007E-04      20   32    2         0.9691018997E-03      0.1485254972E-01
          0                13           1            34   30     2       0.1453399547E-04      21   35    2         0.9391148976E-03      0.1346606680E-01
          0                14           1            32   29     1       0.1383954050E-04      37   27    2         0.8047985773E-03      0.1219126063E-01
          0                15           1            34   30     2       0.1193948957E-04      21   35    2         0.7495550742E-03      0.1103955909E-01
          0                16           1            32   29     1       0.1117271819E-04      37   27    2         0.6755846708E-03      0.1001292450E-01
          0                17           1            34   30     2       0.9867151519E-05      21   35    2         0.6020669811E-03      0.9055317394E-02

    ------------------------------------------------
       NWT REQUIRED           17 OUTER ITERATIONS 
       AND A TOTAL OF         17 INNER ITERATIONS.
    ------------------------------------------------

 OUTPUT CONTROL FOR STRESS PERIOD    1   TIME STEP  225
    SAVE HEAD FOR ALL LAYERS
 SOLVING FOR ZETA FOR LAYER     1 ZONE     2

     764 UPPER PART EQS.       776 LOWER PART EQS.    BAND WIDTH + 1 =   39
 STRESS PERIOD=  1 TIMESTEP=225 LAYER=  1 ZONE=  2 ACTIVE CELLS= 1540 NUMBER OF EQUATIONS=    1540
 SOLVING FOR ZETA FOR LAYER     2 ZONE     2

     269 UPPER PART EQS.       272 LOWER PART EQS.    BAND WIDTH + 1 =   22
 STRESS PERIOD=  1 TIMESTEP=225 LAYER=  2 ZONE=  2 ACTIVE CELLS=  541 NUMBER OF EQUATIONS=     541
 UBUDSV SAVING "      ZETASRF  1" ON UNIT 55 AT TIME STEP225, STRESS PERIOD    1

 HEAD WILL BE SAVED ON UNIT   51 AT END OF TIME STEP  225, STRESS PERIOD    1
 
 SOLVING FOR HEAD 
                                                   Max.-Head-Change                         Max.-Flux-Residual
  Residual-Control   Outer-Iter.   Inner-Iter.     Column Row Layer    Maximum-Head-Change  Column Row Layer    Maximum-Flux-Residual          L2-NORM 
          0                 1           1            18   32     2      -0.6849924152E-03      41   40    2         0.4328506077E+00      0.3735519920E+01
          0                 2           1            38   25     1       0.9578328544E-04      37   43    2        -0.1727438669E-01      0.2196688903E+00
          0                 3           1            31   26     1       0.1030780907E-03      28   25    1         0.5040137097E-02      0.7653833015E-01
          0                 4           1            31   31     2       0.6219230188E-04      31   30    1         0.3771187662E-02      0.4776691048E-01
          0                 5           1            31   31     2       0.5708822392E-04      30   30    2         0.2702380515E-02      0.3403714087E-01
          0                 6           1            32   31     1       0.3701432208E-04      32   29    1         0.1996925773E-02      0.2666432329E-01
          0                 7           1            31   31     2       0.3185309279E-04      21   31    2         0.1543701509E-02      0.2207685558E-01
          0                 8           1            32   31     1       0.2625472337E-04      37   27    2         0.1313748454E-02      0.1927764418E-01
          0                 9           1            29   32     1       0.2056894193E-04      22   38    2         0.1214028747E-02      0.1714503838E-01
          0                10           1            32   29     1       0.1978617703E-04      20   40    2         0.1018432567E-02      0.1541151710E-01
                                                   Max.-Head-Change                         Max.-Flux-Residual
  Residual-Control   Outer-Iter.   Inner-Iter.     Column Row Layer    Maximum-Head-Change  Column Row Layer    Maximum-Flux-Residual          L2-NORM 
          0                11           1            29   32     1       0.1502804598E-04      22   38    2         0.9761925525E-03      0.1404069958E-01
          0                12           1            32   29     1       0.1524322768E-04      20   40    2         0.8618531145E-03      0.1260911841E-01
          0                13           1            29   32     1       0.1180183017E-04      22   38    2         0.7772761376E-03      0.1153922404E-01
          0                14           1            32   29     1       0.1205565467E-04      20   40    2         0.7111842981E-03      0.1035430002E-01
          0                15           1            29   30     1       0.9557555223E-05      22   38    2         0.6191121830E-03      0.9471421664E-02

    ------------------------------------------------
       NWT REQUIRED           15 OUTER ITERATIONS 
       AND A TOTAL OF         15 INNER ITERATIONS.
    ------------------------------------------------

 OUTPUT CONTROL FOR STRESS PERIOD    1   TIME STEP  226
    SAVE HEAD FOR ALL LAYERS
 SOLVING FOR ZETA FOR LAYER     1 ZONE     2

     774 UPPER PART EQS.       776 LOWER PART EQS.    BAND WIDTH + 1 =   31
 STRESS PERIOD=  1 TIMESTEP=226 LAYER=  1 ZONE=  2 ACTIVE CELLS= 1550 NUMBER OF EQUATIONS=    1550
 SOLVING FOR ZETA FOR LAYER     2 ZONE     2

     271 UPPER PART EQS.       280 LOWER PART EQS.    BAND WIDTH + 1 =   24
 STRESS PERIOD=  1 TIMESTEP=226 LAYER=  2 ZONE=  2 ACTIVE CELLS=  551 NUMBER OF EQUATIONS=     551
 UBUDSV SAVING "      ZETASRF  1" ON UNIT 55 AT TIME STEP226, STRESS PERIOD    1

 HEAD WILL BE SAVED ON UNIT   51 AT END OF TIME STEP  226, STRESS PERIOD    1
 
 SOLVING FOR HEAD 
                                                   Max.-Head-Change                         Max.-Flux-Residual
  Residual-Control   Outer-Iter.   Inner-Iter.     Column Row Layer    Maximum-Head-Change  Column Row Layer    Maximum-Flux-Residual          L2-NORM 
          0                 1           1            18   32     2      -0.6747549126E-03      10   52    1         0.4813582626E+00      0.3920417952E+01
          0                 2           1            38   25     1       0.9093767860E-04      25   19    2        -0.1708442338E-01      0.2128635690E+00
          0                 3           1            31   26     1       0.9762225082E-04      29   24    1         0.4862050167E-02      0.7190360835E-01
          0                 4           1            31   32     1       0.6314143085E-04      31   30    1         0.3724512021E-02      0.4722040654E-01
          0                 5           1            31   31     2       0.5699412705E-04      29   31    2         0.2692325868E-02      0.3503025345E-01
          0                 6           1            32   31     1       0.3929361704E-04      38   30    2         0.2122956446E-02      0.2844577379E-01
          0                 7           1            31   31     2       0.3290988158E-04      21   35    2         0.1772264830E-02      0.2412008936E-01
          0                 8           1            32   31     1       0.2938528335E-04      38   30    2         0.1436067509E-02      0.2129300655E-01
          0                 9           1            29   32     1       0.2158064741E-04      21   35    2         0.1411402609E-02      0.1908735412E-01
          0                10           1            32   31     1       0.2241107987E-04      21   35    2         0.1110714757E-02      0.1711273524E-01
                                                   Max.-Head-Change                         Max.-Flux-Residual
  Residual-Control   Outer-Iter.   Inner-Iter.     Column Row Layer    Maximum-Head-Change  Column Row Layer    Maximum-Flux-Residual          L2-NORM 
          0                11           1            34   30     2       0.1618209329E-04      24   40    2         0.1141760045E-02      0.1561110586E-01
          0                12           1            32   29     1       0.1720012025E-04      21   35    2         0.9043757733E-03      0.1397760784E-01
          0                13           1            34   30     2       0.1300119201E-04      24   40    2         0.9180392792E-03      0.1277545023E-01
          0                14           1            32   29     1       0.1350037852E-04      21   35    2         0.7425049215E-03      0.1145955202E-01
          0                15           1            34   30     2       0.1067998473E-04      24   40    2         0.7350573521E-03      0.1045328456E-01
          0                16           1            32   29     1       0.1082521430E-04      21   35    2         0.6123138132E-03      0.9404172327E-02
          0                17           1            34   30     2       0.8821660275E-05      24   40    2         0.5895587163E-03      0.8562292394E-02

    ------------------------------------------------
       NWT REQUIRED           17 OUTER ITERATIONS 
       AND A TOTAL OF         17 INNER ITERATIONS.
    ------------------------------------------------

 OUTPUT CONTROL FOR STRESS PERIOD    1   TIME STEP  227
    SAVE HEAD FOR ALL LAYERS
 SOLVING FOR ZETA FOR LAYER     1 ZONE     2

     758 UPPER PART EQS.       752 LOWER PART EQS.    BAND WIDTH + 1 =   33
 STRESS PERIOD=  1 TIMESTEP=227 LAYER=  1 ZONE=  2 ACTIVE CELLS= 1510 NUMBER OF EQUATIONS=    1510
 SOLVING FOR ZETA FOR LAYER     2 ZONE     2

     277 UPPER PART EQS.       280 LOWER PART EQS.    BAND WIDTH + 1 =   24
 STRESS PERIOD=  1 TIMESTEP=227 LAYER=  2 ZONE=  2 ACTIVE CELLS=  557 NUMBER OF EQUATIONS=     557
 UBUDSV SAVING "      ZETASRF  1" ON UNIT 55 AT TIME STEP227, STRESS PERIOD    1

 HEAD WILL BE SAVED ON UNIT   51 AT END OF TIME STEP  227, STRESS PERIOD    1
 
 SOLVING FOR HEAD 
                                                   Max.-Head-Change                         Max.-Flux-Residual
  Residual-Control   Outer-Iter.   Inner-Iter.     Column Row Layer    Maximum-Head-Change  Column Row Layer    Maximum-Flux-Residual          L2-NORM 
          0                 1           1            18   34     2      -0.6724563085E-03      41   21    2        -0.4271665721E+00      0.4092706997E+01
          0                 2           1            36   23     1       0.9604873647E-04      25   19    2        -0.1752898462E-01      0.2191545908E+00
          0                 3           1            33   26     1       0.9616917073E-04      29   24    1         0.4841310324E-02      0.7654323416E-01
          0                 4           1            31   30     1       0.6259025709E-04      31   30    1         0.3700192743E-02      0.4829544810E-01
          0                 5           1            31   31     2       0.5753200921E-04      30   30    2         0.2720798634E-02      0.3499770361E-01
          0                 6           1            32   31     1       0.3841800330E-04      33   32    1         0.2035278229E-02      0.2765066884E-01
          0                 7           1            31   31     2       0.3316863611E-04      21   35    2         0.1670815961E-02      0.2312511477E-01
          0                 8           1            32   31     1       0.2765227100E-04      38   26    2         0.1327304589E-02      0.2021123312E-01
          0                 9           1            29   32     1       0.2121967110E-04      21   35    2         0.1323413105E-02      0.1806969959E-01
          0                10           1            32   29     1       0.2128477544E-04      22   42    2         0.1107670130E-02      0.1620051987E-01
                                                   Max.-Head-Change                         Max.-Flux-Residual
  Residual-Control   Outer-Iter.   Inner-Iter.     Column Row Layer    Maximum-Head-Change  Column Row Layer    Maximum-Flux-Residual          L2-NORM 
          0                11           1            28   31     1       0.1534142498E-04      41   27    2         0.1060807837E-02      0.1482552558E-01
          0                12           1            32   29     1       0.1656925373E-04      22   42    2         0.9358991717E-03      0.1324073658E-01
          0                13           1            29   30     1       0.1201040416E-04      41   27    2         0.8586706435E-03      0.1218602686E-01
          0                14           1            32   29     1       0.1311914207E-04      22   42    2         0.7744167245E-03      0.1085589888E-01
          0                15           1            29   30     1       0.9751294607E-05      41   27    2         0.6959235178E-03      0.9992254182E-02

    ------------------------------------------------
       NWT REQUIRED           15 OUTER ITERATIONS 
       AND A TOTAL OF         15 INNER ITERATIONS.
    ------------------------------------------------

 OUTPUT CONTROL FOR STRESS PERIOD    1   TIME STEP  228
    SAVE HEAD FOR ALL LAYERS
 SOLVING FOR ZETA FOR LAYER     1 ZONE     2

     780 UPPER PART EQS.       774 LOWER PART EQS.    BAND WIDTH + 1 =   33
 STRESS PERIOD=  1 TIMESTEP=228 LAYER=  1 ZONE=  2 ACTIVE CELLS= 1554 NUMBER OF EQUATIONS=    1554
 SOLVING FOR ZETA FOR LAYER     2 ZONE     2

     285 UPPER PART EQS.       284 LOWER PART EQS.    BAND WIDTH + 1 =   24
 STRESS PERIOD=  1 TIMESTEP=228 LAYER=  2 ZONE=  2 ACTIVE CELLS=  569 NUMBER OF EQUATIONS=     569
 UBUDSV SAVING "      ZETASRF  1" ON UNIT 55 AT TIME STEP228, STRESS PERIOD    1

 HEAD WILL BE SAVED ON UNIT   51 AT END OF TIME STEP  228, STRESS PERIOD    1
 
 SOLVING FOR HEAD 
                                                   Max.-Head-Change                         Max.-Flux-Residual
  Residual-Control   Outer-Iter.   Inner-Iter.     Column Row Layer    Maximum-Head-Change  Column Row Layer    Maximum-Flux-Residual          L2-NORM 
          0                 1           1            18   35     2      -0.6501324666E-03       9   50    1         0.4755922341E+00      0.3639778552E+01
          0                 2           1            37   24     1       0.9077301211E-04      25   19    2        -0.1729291651E-01      0.2082367632E+00
          0                 3           1            31   26     1       0.9814284950E-04      29   24    1         0.4766840496E-02      0.7144447867E-01
          0                 4           1            31   31     2       0.6123015401E-04      31   30    1         0.3673706598E-02      0.4687486751E-01
          0                 5           1            31   31     2       0.5847561305E-04      34   30    2         0.2667183926E-02      0.3471007329E-01
          0                 6           1            32   31     1       0.3737215545E-04      38   30    2         0.2073517350E-02      0.2812642891E-01
          0                 7           1            31   31     2       0.3447217807E-04      22   38    2         0.1652096246E-02      0.2379674699E-01
          0                 8           1            32   31     1       0.2758917336E-04      38   30    2         0.1408537039E-02      0.2103377024E-01
          0                 9           1            29   32     1       0.2262418022E-04      22   38    2         0.1342985121E-02      0.1876666625E-01
          0                10           1            32   29     1       0.2134312443E-04      38   30    2         0.1057496732E-02      0.1691880677E-01
                                                   Max.-Head-Change                         Max.-Flux-Residual
  Residual-Control   Outer-Iter.   Inner-Iter.     Column Row Layer    Maximum-Head-Change  Column Row Layer    Maximum-Flux-Residual          L2-NORM 
          0                11           1            29   32     1       0.1664556363E-04      22   38    2         0.1089209921E-02      0.1534971463E-01
          0                12           1            32   29     1       0.1670838356E-04      21   39    2         0.8961306294E-03      0.1382517323E-01
          0                13           1            34   30     2       0.1321477110E-04      22   38    2         0.8720989580E-03      0.1258648833E-01
          0                14           1            32   29     1       0.1326021962E-04      21   39    2         0.7536004199E-03      0.1133595341E-01
          0                15           1            34   30     2       0.1079488110E-04      22   38    2         0.6967464421E-03      0.1031420228E-01
          0                16           1            32   29     1       0.1068599638E-04      21   39    2         0.6300229957E-03      0.9303362336E-02
          0                17           1            34   28     2       0.8893103316E-05      22   38    2         0.5585211774E-03      0.8455610876E-02

    ------------------------------------------------
       NWT REQUIRED           17 OUTER ITERATIONS 
       AND A TOTAL OF         17 INNER ITERATIONS.
    ------------------------------------------------

 OUTPUT CONTROL FOR STRESS PERIOD    1   TIME STEP  229
    SAVE HEAD FOR ALL LAYERS
 SOLVING FOR ZETA FOR LAYER     1 ZONE     2

     756 UPPER PART EQS.       738 LOWER PART EQS.    BAND WIDTH + 1 =   41
 STRESS PERIOD=  1 TIMESTEP=229 LAYER=  1 ZONE=  2 ACTIVE CELLS= 1494 NUMBER OF EQUATIONS=    1494
 SOLVING FOR ZETA FOR LAYER     2 ZONE     2

     285 UPPER PART EQS.       296 LOWER PART EQS.    BAND WIDTH + 1 =   24
 STRESS PERIOD=  1 TIMESTEP=229 LAYER=  2 ZONE=  2 ACTIVE CELLS=  581 NUMBER OF EQUATIONS=     581
 UBUDSV SAVING "      ZETASRF  1" ON UNIT 55 AT TIME STEP229, STRESS PERIOD    1

 HEAD WILL BE SAVED ON UNIT   51 AT END OF TIME STEP  229, STRESS PERIOD    1
 
 SOLVING FOR HEAD 
                                                   Max.-Head-Change                         Max.-Flux-Residual
  Residual-Control   Outer-Iter.   Inner-Iter.     Column Row Layer    Maximum-Head-Change  Column Row Layer    Maximum-Flux-Residual          L2-NORM 
          0                 1           1            18   36     2      -0.6501393552E-03      39   20    2         0.4352453741E+00      0.3656469965E+01
          0                 2           1            36   23     1       0.9212819330E-04      26   18    2        -0.1544587523E-01      0.2102971500E+00
          0                 3           1            33   26     1       0.9557063840E-04      29   24    1         0.4653001988E-02      0.7654805214E-01
          0                 4           1            31   30     1       0.5844489850E-04      31   30    1         0.3563417499E-02      0.4728016930E-01
          0                 5           1            31   31     2       0.5483242133E-04      30   30    2         0.2577093112E-02      0.3305196761E-01
          0                 6           1            32   31     1       0.3458043977E-04      33   32    1         0.1891474297E-02      0.2520343735E-01
          0                 7           1            31   31     2       0.3027330635E-04      35   29    2         0.1472811631E-02      0.2041269560E-01
          0                 8           1            32   31     1       0.2412160070E-04      38   26    2         0.1204311607E-02      0.1749578754E-01
          0                 9           1            29   32     1       0.1897720180E-04      24   40    2         0.1103293946E-02      0.1545077304E-01
          0                10           1            32   29     1       0.1824918567E-04      38   26    2         0.8707401056E-03      0.1380832298E-01
                                                   Max.-Head-Change                         Max.-Flux-Residual
  Residual-Control   Outer-Iter.   Inner-Iter.     Column Row Layer    Maximum-Head-Change  Column Row Layer    Maximum-Flux-Residual          L2-NORM 
          0                11           1            29   32     1       0.1347385153E-04      24   40    2         0.9049553812E-03      0.1258576786E-01
          0                12           1            32   29     1       0.1410846775E-04      38   26    2         0.6824679846E-03      0.1126020561E-01
          0                13           1            29   30     1       0.1039828416E-04      24   40    2         0.7312076747E-03      0.1034449776E-01
          0                14           1            32   29     1       0.1113747863E-04      23   41    2         0.5721320427E-03      0.9233526470E-02
          0                15           1            29   30     1       0.8371250492E-05      24   40    2         0.5866910810E-03      0.8488833289E-02

    ------------------------------------------------
       NWT REQUIRED           15 OUTER ITERATIONS 
       AND A TOTAL OF         15 INNER ITERATIONS.
    ------------------------------------------------

 OUTPUT CONTROL FOR STRESS PERIOD    1   TIME STEP  230
    SAVE HEAD FOR ALL LAYERS
 SOLVING FOR ZETA FOR LAYER     1 ZONE     2

     766 UPPER PART EQS.       786 LOWER PART EQS.    BAND WIDTH + 1 =   43
 STRESS PERIOD=  1 TIMESTEP=230 LAYER=  1 ZONE=  2 ACTIVE CELLS= 1552 NUMBER OF EQUATIONS=    1552
 SOLVING FOR ZETA FOR LAYER     2 ZONE     2

     293 UPPER PART EQS.       300 LOWER PART EQS.    BAND WIDTH + 1 =   26
 STRESS PERIOD=  1 TIMESTEP=230 LAYER=  2 ZONE=  2 ACTIVE CELLS=  593 NUMBER OF EQUATIONS=     593
 UBUDSV SAVING "      ZETASRF  1" ON UNIT 55 AT TIME STEP230, STRESS PERIOD    1

 HEAD WILL BE SAVED ON UNIT   51 AT END OF TIME STEP  230, STRESS PERIOD    1
 
 SOLVING FOR HEAD 
                                                   Max.-Head-Change                         Max.-Flux-Residual
  Residual-Control   Outer-Iter.   Inner-Iter.     Column Row Layer    Maximum-Head-Change  Column Row Layer    Maximum-Flux-Residual          L2-NORM 
          0                 1           1            18   36     2      -0.6453520424E-03      11   53    1         0.3980486959E+00      0.3044291154E+01
          0                 2           1            36   23     1       0.8747180341E-04      34   46    2        -0.1526012893E-01      0.1983456460E+00
          0                 3           1            33   26     1       0.9104208106E-04      29   24    1         0.4564144360E-02      0.6831735449E-01
          0                 4           1            31   30     1       0.6040909840E-04      31   30    1         0.3494374407E-02      0.4533481401E-01
          0                 5           1            31   31     2       0.5679563528E-04      30   30    2         0.2605300373E-02      0.3459931345E-01
          0                 6           1            32   31     1       0.3865989084E-04      33   32    1         0.1995558182E-02      0.2883872377E-01
          0                 7           1            31   31     2       0.3426103901E-04      41   27    2         0.1760148746E-02      0.2485240954E-01
          0                 8           1            32   31     1       0.2857933314E-04      38   26    2         0.1394698279E-02      0.2220873903E-01
          0                 9           1            29   32     1       0.2328703888E-04      41   27    2         0.1412390571E-02      0.1993282549E-01
          0                10           1            32   29     1       0.2176587053E-04      36   24    2         0.1109356816E-02      0.1801721646E-01
                                                   Max.-Head-Change                         Max.-Flux-Residual
  Residual-Control   Outer-Iter.   Inner-Iter.     Column Row Layer    Maximum-Head-Change  Column Row Layer    Maximum-Flux-Residual          L2-NORM 
          0                11           1            28   31     1       0.1773393724E-04      41   27    2         0.1139785475E-02      0.1633782876E-01
          0                12           1            32   29     1       0.1688710428E-04      36   24    2         0.9280233971E-03      0.1477023183E-01
          0                13           1            29   30     1       0.1425690757E-04      41   27    2         0.9199012636E-03      0.1339754895E-01
          0                14           1            32   29     1       0.1339897419E-04      36   24    2         0.7865454440E-03      0.1213059853E-01
          0                15           1            29   30     1       0.1172890871E-04      41   27    2         0.7454394038E-03      0.1098496538E-01
          0                16           1            32   29     1       0.1081902432E-04      36   24    2         0.6657421867E-03      0.9963806786E-02
          0                17           1            29   30     1       0.9695627012E-05      41   27    2         0.6064903893E-03      0.9011752926E-02

    ------------------------------------------------
       NWT REQUIRED           17 OUTER ITERATIONS 
       AND A TOTAL OF         17 INNER ITERATIONS.
    ------------------------------------------------

 OUTPUT CONTROL FOR STRESS PERIOD    1   TIME STEP  231
    SAVE HEAD FOR ALL LAYERS
 SOLVING FOR ZETA FOR LAYER     1 ZONE     2

     752 UPPER PART EQS.       736 LOWER PART EQS.    BAND WIDTH + 1 =   39
 STRESS PERIOD=  1 TIMESTEP=231 LAYER=  1 ZONE=  2 ACTIVE CELLS= 1488 NUMBER OF EQUATIONS=    1488
 SOLVING FOR ZETA FOR LAYER     2 ZONE     2

     301 UPPER PART EQS.       308 LOWER PART EQS.    BAND WIDTH + 1 =   22
 STRESS PERIOD=  1 TIMESTEP=231 LAYER=  2 ZONE=  2 ACTIVE CELLS=  609 NUMBER OF EQUATIONS=     609
 UBUDSV SAVING "      ZETASRF  1" ON UNIT 55 AT TIME STEP231, STRESS PERIOD    1

 HEAD WILL BE SAVED ON UNIT   51 AT END OF TIME STEP  231, STRESS PERIOD    1
 
 SOLVING FOR HEAD 
                                                   Max.-Head-Change                         Max.-Flux-Residual
  Residual-Control   Outer-Iter.   Inner-Iter.     Column Row Layer    Maximum-Head-Change  Column Row Layer    Maximum-Flux-Residual          L2-NORM 
          0                 1           1            26   44     2      -0.6367094316E-03      41   21    2         0.3965581153E+00      0.3466532953E+01
          0                 2           1            36   23     1       0.8637039711E-04      20   20    2        -0.1579754975E-01      0.2071858830E+00
          0                 3           1            33   26     1       0.8976704623E-04      29   24    1         0.4475302089E-02      0.7430642040E-01
          0                 4           1            31   30     1       0.5672349526E-04      31   29    2         0.3420062174E-02      0.4575598968E-01
          0                 5           1            31   31     2       0.5471496516E-04      30   30    2         0.2536876048E-02      0.3234948034E-01
          0                 6           1            32   31     1       0.3402902358E-04      33   32    1         0.1859644253E-02      0.2502758926E-01
          0                 7           1            31   31     2       0.3123315816E-04      35   29    2         0.1451011194E-02      0.2048385014E-01
          0                 8           1            32   31     1       0.2363509068E-04      38   26    2         0.1194135743E-02      0.1777470628E-01
          0                 9           1            29   32     1       0.1990344817E-04      21   35    2         0.1016184554E-02      0.1568621434E-01
          0                10           1            33   30     1       0.1783446178E-04      38   26    2         0.8810554489E-03      0.1414890417E-01
                                                   Max.-Head-Change                         Max.-Flux-Residual
  Residual-Control   Outer-Iter.   Inner-Iter.     Column Row Layer    Maximum-Head-Change  Column Row Layer    Maximum-Flux-Residual          L2-NORM 
          0                11           1            29   32     1       0.1421533016E-04      42   34    2         0.8094050849E-03      0.1279330903E-01
          0                12           1            33   30     1       0.1386029587E-04      38   26    2         0.6990226951E-03      0.1156128250E-01
          0                13           1            29   30     1       0.1098742344E-04      42   34    2         0.6551963198E-03      0.1051672941E-01
          0                14           1            33   30     1       0.1098100986E-04      21   39    2         0.5773039292E-03      0.9483365444E-02
          0                15           1            29   30     1       0.8837954469E-05      42   34    2         0.5295687862E-03      0.8634281738E-02

    ------------------------------------------------
       NWT REQUIRED           15 OUTER ITERATIONS 
       AND A TOTAL OF         15 INNER ITERATIONS.
    ------------------------------------------------

 OUTPUT CONTROL FOR STRESS PERIOD    1   TIME STEP  232
    SAVE HEAD FOR ALL LAYERS
 SOLVING FOR ZETA FOR LAYER     1 ZONE     2

     752 UPPER PART EQS.       758 LOWER PART EQS.    BAND WIDTH + 1 =   30
 STRESS PERIOD=  1 TIMESTEP=232 LAYER=  1 ZONE=  2 ACTIVE CELLS= 1510 NUMBER OF EQUATIONS=    1510
 SOLVING FOR ZETA FOR LAYER     2 ZONE     2

     305 UPPER PART EQS.       308 LOWER PART EQS.    BAND WIDTH + 1 =   24
 STRESS PERIOD=  1 TIMESTEP=232 LAYER=  2 ZONE=  2 ACTIVE CELLS=  613 NUMBER OF EQUATIONS=     613
 UBUDSV SAVING "      ZETASRF  1" ON UNIT 55 AT TIME STEP232, STRESS PERIOD    1

 HEAD WILL BE SAVED ON UNIT   51 AT END OF TIME STEP  232, STRESS PERIOD    1
 
 SOLVING FOR HEAD 
                                                   Max.-Head-Change                         Max.-Flux-Residual
  Residual-Control   Outer-Iter.   Inner-Iter.     Column Row Layer    Maximum-Head-Change  Column Row Layer    Maximum-Flux-Residual          L2-NORM 
          0                 1           1            19   39     2      -0.6256704908E-03       9   50    1         0.4539930642E+00      0.3639953237E+01
          0                 2           1            36   23     1       0.8469146537E-04      20   20    2        -0.1596672130E-01      0.1994620740E+00
          0                 3           1            33   26     1       0.9214563190E-04      29   24    1         0.4306361876E-02      0.7264882117E-01
          0                 4           1            31   30     1       0.5578236152E-04      32   29    1         0.3403896389E-02      0.4589117348E-01
          0                 5           1            31   31     2       0.5773553055E-04      30   30    2         0.2544262059E-02      0.3302331067E-01
          0                 6           1            32   31     1       0.3327518228E-04      38   26    2         0.1958904803E-02      0.2612866053E-01
          0                 7           1            31   31     2       0.3455658779E-04      30   30    2         0.1485873370E-02      0.2173305179E-01
          0                 8           1            32   31     1       0.2317941522E-04      38   26    2         0.1326136427E-02      0.1907899394E-01
          0                 9           1            30   32     2       0.2272989373E-04      42   34    2         0.1093103447E-02      0.1685666843E-01
          0                10           1            32   29     1       0.1765890009E-04      38   26    2         0.1003438413E-02      0.1529949485E-01
                                                   Max.-Head-Change                         Max.-Flux-Residual
  Residual-Control   Outer-Iter.   Inner-Iter.     Column Row Layer    Maximum-Head-Change  Column Row Layer    Maximum-Flux-Residual          L2-NORM 
          0                11           1            29   30     1       0.1643433775E-04      42   34    2         0.8852844163E-03      0.1373298933E-01
          0                12           1            32   29     1       0.1385635809E-04      38   26    2         0.8078003049E-03      0.1251105860E-01
          0                13           1            29   30     1       0.1281102228E-04      42   34    2         0.7167705334E-03      0.1127194445E-01
          0                14           1            32   29     1       0.1107222712E-04      38   26    2         0.6667055231E-03      0.1026418923E-01
          0                15           1            29   30     1       0.1032934994E-04      42   34    2         0.5803903963E-03      0.9253553586E-02
          0                16           1            33   28     1       0.9046791290E-05      38   26    2         0.5539386133E-03      0.8425237425E-02

    ------------------------------------------------
       NWT REQUIRED           16 OUTER ITERATIONS 
       AND A TOTAL OF         16 INNER ITERATIONS.
    ------------------------------------------------

 OUTPUT CONTROL FOR STRESS PERIOD    1   TIME STEP  233
    SAVE HEAD FOR ALL LAYERS
 SOLVING FOR ZETA FOR LAYER     1 ZONE     2

     756 UPPER PART EQS.       744 LOWER PART EQS.    BAND WIDTH + 1 =   35
 STRESS PERIOD=  1 TIMESTEP=233 LAYER=  1 ZONE=  2 ACTIVE CELLS= 1500 NUMBER OF EQUATIONS=    1500
 SOLVING FOR ZETA FOR LAYER     2 ZONE     2

     311 UPPER PART EQS.       308 LOWER PART EQS.    BAND WIDTH + 1 =   24
 STRESS PERIOD=  1 TIMESTEP=233 LAYER=  2 ZONE=  2 ACTIVE CELLS=  619 NUMBER OF EQUATIONS=     619
 UBUDSV SAVING "      ZETASRF  1" ON UNIT 55 AT TIME STEP233, STRESS PERIOD    1

 HEAD WILL BE SAVED ON UNIT   51 AT END OF TIME STEP  233, STRESS PERIOD    1
 
 SOLVING FOR HEAD 
                                                   Max.-Head-Change                         Max.-Flux-Residual
  Residual-Control   Outer-Iter.   Inner-Iter.     Column Row Layer    Maximum-Head-Change  Column Row Layer    Maximum-Flux-Residual          L2-NORM 
          0                 1           1            18   37     2      -0.6181221928E-03      40   20    2         0.3882381708E+00      0.3118161553E+01
          0                 2           1            38   23     1       0.8189461954E-04      21   19    2        -0.1575860402E-01      0.1945554892E+00
          0                 3           1            28   25     1       0.8648365567E-04      29   24    1         0.4186896339E-02      0.7146950465E-01
          0                 4           1            31   30     1       0.5293126807E-04      32   29    1         0.3245430778E-02      0.4383530853E-01
          0                 5           1            31   31     2       0.5408283566E-04      30   30    2         0.2435550913E-02      0.3106731004E-01
          0                 6           1            32   31     1       0.3141100894E-04      33   32    1         0.1760325133E-02      0.2402228220E-01
          0                 7           1            31   31     2       0.3154993092E-04      30   30    2         0.1391512987E-02      0.1975103797E-01
          0                 8           1            32   31     1       0.2144237648E-04      38   26    2         0.1162255171E-02      0.1715942498E-01
          0                 9           1            31   31     2       0.2042444574E-04      20   32    2         0.9490833556E-03      0.1514574064E-01
          0                10           1            33   30     1       0.1606508754E-04      38   26    2         0.8693414932E-03      0.1372111656E-01
                                                   Max.-Head-Change                         Max.-Flux-Residual
  Residual-Control   Outer-Iter.   Inner-Iter.     Column Row Layer    Maximum-Head-Change  Column Row Layer    Maximum-Flux-Residual          L2-NORM 
          0                11           1            30   31     1       0.1455583438E-04      39   21    2         0.7636441300E-03      0.1234655553E-01
          0                12           1            33   30     1       0.1251239704E-04      38   26    2         0.6962282315E-03      0.1123402909E-01
          0                13           1            29   30     1       0.1125037137E-04      39   21    2         0.6354770730E-03      0.1015106099E-01
          0                14           1            33   30     1       0.9925236165E-05      38   26    2         0.5751146441E-03      0.9223664404E-02

    ------------------------------------------------
       NWT REQUIRED           14 OUTER ITERATIONS 
       AND A TOTAL OF         14 INNER ITERATIONS.
    ------------------------------------------------

 OUTPUT CONTROL FOR STRESS PERIOD    1   TIME STEP  234
    SAVE HEAD FOR ALL LAYERS
 SOLVING FOR ZETA FOR LAYER     1 ZONE     2

     750 UPPER PART EQS.       756 LOWER PART EQS.    BAND WIDTH + 1 =   29
 STRESS PERIOD=  1 TIMESTEP=234 LAYER=  1 ZONE=  2 ACTIVE CELLS= 1506 NUMBER OF EQUATIONS=    1506
 SOLVING FOR ZETA FOR LAYER     2 ZONE     2

     321 UPPER PART EQS.       308 LOWER PART EQS.    BAND WIDTH + 1 =   26
 STRESS PERIOD=  1 TIMESTEP=234 LAYER=  2 ZONE=  2 ACTIVE CELLS=  629 NUMBER OF EQUATIONS=     629
 UBUDSV SAVING "      ZETASRF  1" ON UNIT 55 AT TIME STEP234, STRESS PERIOD    1

 HEAD WILL BE SAVED ON UNIT   51 AT END OF TIME STEP  234, STRESS PERIOD    1
 
 SOLVING FOR HEAD 
                                                   Max.-Head-Change                         Max.-Flux-Residual
  Residual-Control   Outer-Iter.   Inner-Iter.     Column Row Layer    Maximum-Head-Change  Column Row Layer    Maximum-Flux-Residual          L2-NORM 
          0                 1           1            18   37     2      -0.6190678449E-03      11   53    1         0.3972286602E+00      0.3650142997E+01
          0                 2           1            39   24     1       0.8593329880E-04      21   19    2        -0.1612432116E-01      0.1917847071E+00
          0                 3           1            35   26     1       0.8647234691E-04      29   24    1         0.4120202759E-02      0.6945876482E-01
          0                 4           1            31   30     1       0.5525799530E-04      32   29    1         0.3262836840E-02      0.4446549179E-01
          0                 5           1            31   31     2       0.5638805955E-04      30   30    2         0.2511079490E-02      0.3325392261E-01
          0                 6           1            32   31     1       0.3531033359E-04      38   26    2         0.1921922517E-02      0.2717284847E-01
          0                 7           1            31   31     2       0.3453523646E-04      30   30    2         0.1522789824E-02      0.2318118678E-01
          0                 8           1            32   31     1       0.2550748252E-04      38   26    2         0.1376736562E-02      0.2062163686E-01
          0                 9           1            31   31     2       0.2308849574E-04      20   32    2         0.1160604128E-02      0.1839638586E-01
          0                10           1            33   30     1       0.1948095434E-04      38   26    2         0.1081135750E-02      0.1669698999E-01
                                                   Max.-Head-Change                         Max.-Flux-Residual
  Residual-Control   Outer-Iter.   Inner-Iter.     Column Row Layer    Maximum-Head-Change  Column Row Layer    Maximum-Flux-Residual          L2-NORM 
          0                11           1            29   30     1       0.1719070654E-04      21   39    2         0.9443612498E-03      0.1505934953E-01
          0                12           1            33   28     1       0.1513017665E-04      38   26    2         0.8914144579E-03      0.1368160597E-01
          0                13           1            29   30     1       0.1368111249E-04      21   39    2         0.7610675825E-03      0.1235798274E-01
          0                14           1            33   28     1       0.1212288908E-04      38   26    2         0.7466980560E-03      0.1123046691E-01
          0                15           1            29   30     1       0.1114416492E-04      21   39    2         0.6104212698E-03      0.1013674858E-01
          0                16           1            33   28     1       0.9862321466E-05      38   26    2         0.6253681810E-03      0.9218671445E-02

    ------------------------------------------------
       NWT REQUIRED           16 OUTER ITERATIONS 
       AND A TOTAL OF         16 INNER ITERATIONS.
    ------------------------------------------------

 OUTPUT CONTROL FOR STRESS PERIOD    1   TIME STEP  235
    SAVE HEAD FOR ALL LAYERS
 SOLVING FOR ZETA FOR LAYER     1 ZONE     2

     758 UPPER PART EQS.       732 LOWER PART EQS.    BAND WIDTH + 1 =   41
 STRESS PERIOD=  1 TIMESTEP=235 LAYER=  1 ZONE=  2 ACTIVE CELLS= 1490 NUMBER OF EQUATIONS=    1490
 SOLVING FOR ZETA FOR LAYER     2 ZONE     2

     321 UPPER PART EQS.       308 LOWER PART EQS.    BAND WIDTH + 1 =   26
 STRESS PERIOD=  1 TIMESTEP=235 LAYER=  2 ZONE=  2 ACTIVE CELLS=  629 NUMBER OF EQUATIONS=     629
 UBUDSV SAVING "      ZETASRF  1" ON UNIT 55 AT TIME STEP235, STRESS PERIOD    1

 HEAD WILL BE SAVED ON UNIT   51 AT END OF TIME STEP  235, STRESS PERIOD    1
 
 SOLVING FOR HEAD 
                                                   Max.-Head-Change                         Max.-Flux-Residual
  Residual-Control   Outer-Iter.   Inner-Iter.     Column Row Layer    Maximum-Head-Change  Column Row Layer    Maximum-Flux-Residual          L2-NORM 
          0                 1           1            18   37     2      -0.6138810976E-03      17   54    1         0.4237027444E+00      0.3941404257E+01
          0                 2           1            39   24     1       0.7982451861E-04      35   45    2        -0.1698513274E-01      0.1969669379E+00
          0                 3           1            28   25     1       0.8227160232E-04      29   24    1         0.4070052227E-02      0.7024017783E-01
          0                 4           1            31   30     1       0.5327840569E-04      31   29    2         0.3181022021E-02      0.4321218806E-01
          0                 5           1            31   31     2       0.5314114385E-04      30   30    2         0.2418331283E-02      0.3109340216E-01
          0                 6           1            32   31     1       0.3258449052E-04      33   32    1         0.1769210559E-02      0.2445929553E-01
          0                 7           1            31   31     2       0.3125622204E-04      30   30    2         0.1403650618E-02      0.2033627657E-01
          0                 8           1            32   31     1       0.2286086506E-04      39   29    2         0.1154646172E-02      0.1780002124E-01
          0                 9           1            30   32     2       0.2015462092E-04      42   30    2         0.1098642454E-02      0.1580641370E-01
          0                10           1            33   30     1       0.1733962928E-04      38   26    2         0.8710579785E-03      0.1428405500E-01
                                                   Max.-Head-Change                         Max.-Flux-Residual
  Residual-Control   Outer-Iter.   Inner-Iter.     Column Row Layer    Maximum-Head-Change  Column Row Layer    Maximum-Flux-Residual          L2-NORM 
          0                11           1            30   31     1       0.1444074622E-04      42   30    2         0.8856176839E-03      0.1293013237E-01
          0                12           1            33   30     1       0.1349280669E-04      38   26    2         0.7029517794E-03      0.1169027438E-01
          0                13           1            35   29     2       0.1123452529E-04      42   30    2         0.7147737664E-03      0.1062862374E-01
          0                14           1            33   30     1       0.1067527288E-04      38   26    2         0.5834676699E-03      0.9591715657E-02
          0                15           1            35   29     2       0.9129598716E-05      42   30    2         0.5776828909E-03      0.8722359468E-02

    ------------------------------------------------
       NWT REQUIRED           15 OUTER ITERATIONS 
       AND A TOTAL OF         15 INNER ITERATIONS.
    ------------------------------------------------

 OUTPUT CONTROL FOR STRESS PERIOD    1   TIME STEP  236
    SAVE HEAD FOR ALL LAYERS
 SOLVING FOR ZETA FOR LAYER     1 ZONE     2

     744 UPPER PART EQS.       748 LOWER PART EQS.    BAND WIDTH + 1 =   31
 STRESS PERIOD=  1 TIMESTEP=236 LAYER=  1 ZONE=  2 ACTIVE CELLS= 1492 NUMBER OF EQUATIONS=    1492
 SOLVING FOR ZETA FOR LAYER     2 ZONE     2

     321 UPPER PART EQS.       310 LOWER PART EQS.    BAND WIDTH + 1 =   26
 STRESS PERIOD=  1 TIMESTEP=236 LAYER=  2 ZONE=  2 ACTIVE CELLS=  631 NUMBER OF EQUATIONS=     631
 UBUDSV SAVING "      ZETASRF  1" ON UNIT 55 AT TIME STEP236, STRESS PERIOD    1

 HEAD WILL BE SAVED ON UNIT   51 AT END OF TIME STEP  236, STRESS PERIOD    1
 
 SOLVING FOR HEAD 
                                                   Max.-Head-Change                         Max.-Flux-Residual
  Residual-Control   Outer-Iter.   Inner-Iter.     Column Row Layer    Maximum-Head-Change  Column Row Layer    Maximum-Flux-Residual          L2-NORM 
          0                 1           1            50   53     1       0.6335914591E-03       9   50    1         0.4800180735E+00      0.3846577918E+01
          0                 2           1            39   24     1       0.8311313054E-04      21   19    2        -0.1641406241E-01      0.1954328229E+00
          0                 3           1            28   25     1       0.8758429198E-04      29   24    1         0.4193894142E-02      0.7134154707E-01
          0                 4           1            31   30     1       0.5394867292E-04      32   29    1         0.3220596130E-02      0.4481886592E-01
          0                 5           1            31   31     2       0.5624738047E-04      30   30    2         0.2479249633E-02      0.3275320628E-01
          0                 6           1            32   31     1       0.3390722053E-04      33   32    1         0.1826181607E-02      0.2627435070E-01
          0                 7           1            31   31     2       0.3393857765E-04      30   30    2         0.1482818726E-02      0.2215144332E-01
          0                 8           1            32   31     1       0.2420612606E-04      39   29    2         0.1247563108E-02      0.1959521591E-01
          0                 9           1            31   31     2       0.2243647851E-04      42   34    2         0.1108772840E-02      0.1744853719E-01
          0                10           1            33   30     1       0.1846824595E-04      38   26    2         0.9552325671E-03      0.1583426591E-01
                                                   Max.-Head-Change                         Max.-Flux-Residual
  Residual-Control   Outer-Iter.   Inner-Iter.     Column Row Layer    Maximum-Head-Change  Column Row Layer    Maximum-Flux-Residual          L2-NORM 
          0                11           1            30   31     1       0.1634178455E-04      42   34    2         0.8974023908E-03      0.1429250576E-01
          0                12           1            33   30     1       0.1438892293E-04      38   26    2         0.7777502718E-03      0.1297287099E-01
          0                13           1            29   30     1       0.1280680620E-04      42   34    2         0.7245322751E-03      0.1174024035E-01
          0                14           1            33   28     1       0.1150740271E-04      38   26    2         0.6473519682E-03      0.1064441509E-01
          0                15           1            29   30     1       0.1034654640E-04      41   23    2         0.5887516453E-03      0.9630956952E-02
          0                16           1            33   28     1       0.9368193202E-05      38   26    2         0.5416609383E-03      0.8732689610E-02

    ------------------------------------------------
       NWT REQUIRED           16 OUTER ITERATIONS 
       AND A TOTAL OF         16 INNER ITERATIONS.
    ------------------------------------------------

 OUTPUT CONTROL FOR STRESS PERIOD    1   TIME STEP  237
    SAVE HEAD FOR ALL LAYERS
 SOLVING FOR ZETA FOR LAYER     1 ZONE     2

     736 UPPER PART EQS.       732 LOWER PART EQS.    BAND WIDTH + 1 =   33
 STRESS PERIOD=  1 TIMESTEP=237 LAYER=  1 ZONE=  2 ACTIVE CELLS= 1468 NUMBER OF EQUATIONS=    1468
 SOLVING FOR ZETA FOR LAYER     2 ZONE     2

     321 UPPER PART EQS.       316 LOWER PART EQS.    BAND WIDTH + 1 =   26
 STRESS PERIOD=  1 TIMESTEP=237 LAYER=  2 ZONE=  2 ACTIVE CELLS=  637 NUMBER OF EQUATIONS=     637
 UBUDSV SAVING "      ZETASRF  1" ON UNIT 55 AT TIME STEP237, STRESS PERIOD    1

 HEAD WILL BE SAVED ON UNIT   51 AT END OF TIME STEP  237, STRESS PERIOD    1
 
 SOLVING FOR HEAD 
                                                   Max.-Head-Change                         Max.-Flux-Residual
  Residual-Control   Outer-Iter.   Inner-Iter.     Column Row Layer    Maximum-Head-Change  Column Row Layer    Maximum-Flux-Residual          L2-NORM 
          0                 1           1            17   33     2      -0.6056194598E-03      54   44    1        -0.4117805837E+00      0.3521610825E+01
          0                 2           1            39   24     1       0.8081881388E-04      21   19    2        -0.1611795649E-01      0.1941191206E+00
          0                 3           1            36   27     1       0.8175007940E-04      29   24    1         0.3864031797E-02      0.7239447493E-01
          0                 4           1            31   30     1       0.5099424847E-04      31   29    2         0.3119597533E-02      0.4370736659E-01
          0                 5           1            31   31     2       0.5268626560E-04      30   30    2         0.2364109146E-02      0.3043896470E-01
          0                 6           1            32   31     1       0.2993729212E-04      32   32    2         0.1689894790E-02      0.2307964499E-01
          0                 7           1            31   31     2       0.3048142552E-04      30   30    2         0.1340186581E-02      0.1871130587E-01
          0                 8           1            32   31     1       0.1989333588E-04      39   29    2         0.1079438253E-02      0.1615360855E-01
          0                 9           1            30   32     2       0.1972307803E-04      20   32    2         0.8834140964E-03      0.1419652530E-01
          0                10           1            33   30     1       0.1470992849E-04      38   26    2         0.7902688994E-03      0.1289866298E-01
                                                   Max.-Head-Change                         Max.-Flux-Residual
  Residual-Control   Outer-Iter.   Inner-Iter.     Column Row Layer    Maximum-Head-Change  Column Row Layer    Maximum-Flux-Residual          L2-NORM 
          0                11           1            31   32     1       0.1384778569E-04      23   41    2         0.7221187981E-03      0.1157666866E-01
          0                12           1            33   30     1       0.1144195271E-04      38   26    2         0.6303095246E-03      0.1056882104E-01
          0                13           1            31   32     1       0.1051762299E-04      23   41    2         0.5933840112E-03      0.9534785792E-02
          0                14           1            33   28     1       0.9108424866E-05      38   26    2         0.5202393156E-03      0.8676040554E-02

    ------------------------------------------------
       NWT REQUIRED           14 OUTER ITERATIONS 
       AND A TOTAL OF         14 INNER ITERATIONS.
    ------------------------------------------------

 OUTPUT CONTROL FOR STRESS PERIOD    1   TIME STEP  238
    SAVE HEAD FOR ALL LAYERS
 SOLVING FOR ZETA FOR LAYER     1 ZONE     2

     736 UPPER PART EQS.       756 LOWER PART EQS.    BAND WIDTH + 1 =   37
 STRESS PERIOD=  1 TIMESTEP=238 LAYER=  1 ZONE=  2 ACTIVE CELLS= 1492 NUMBER OF EQUATIONS=    1492
 SOLVING FOR ZETA FOR LAYER     2 ZONE     2

     321 UPPER PART EQS.       318 LOWER PART EQS.    BAND WIDTH + 1 =   25
 STRESS PERIOD=  1 TIMESTEP=238 LAYER=  2 ZONE=  2 ACTIVE CELLS=  639 NUMBER OF EQUATIONS=     639
 UBUDSV SAVING "      ZETASRF  1" ON UNIT 55 AT TIME STEP238, STRESS PERIOD    1

 HEAD WILL BE SAVED ON UNIT   51 AT END OF TIME STEP  238, STRESS PERIOD    1
 
 SOLVING FOR HEAD 
                                                   Max.-Head-Change                         Max.-Flux-Residual
  Residual-Control   Outer-Iter.   Inner-Iter.     Column Row Layer    Maximum-Head-Change  Column Row Layer    Maximum-Flux-Residual          L2-NORM 
          0                 1           1            29   45     2      -0.5988758841E-03      18   54    1         0.3994332929E+00      0.3814768161E+01
          0                 2           1            29   15     2      -0.8112817856E-04      21   19    2        -0.1645116079E-01      0.1894978321E+00
          0                 3           1            28   25     1       0.8281315532E-04      30   23    1         0.4127617529E-02      0.6784156892E-01
          0                 4           1            31   30     1       0.5341752968E-04      32   29    1         0.3110583054E-02      0.4331631651E-01
          0                 5           1            31   31     2       0.5388250497E-04      30   30    2         0.2418253172E-02      0.3245651093E-01
          0                 6           1            32   31     1       0.3502629637E-04      32   32    2         0.1817045086E-02      0.2665965041E-01
          0                 7           1            31   31     2       0.3247023731E-04      42   30    2         0.1566441442E-02      0.2279679020E-01
          0                 8           1            32   31     1       0.2618794419E-04      38   26    2         0.1246411478E-02      0.2030796322E-01
          0                 9           1            31   31     2       0.2126196176E-04      42   30    2         0.1263142405E-02      0.1818482171E-01
          0                10           1            33   30     1       0.2027964023E-04      38   26    2         0.9665735263E-03      0.1643504383E-01
                                                   Max.-Head-Change                         Max.-Flux-Residual
  Residual-Control   Outer-Iter.   Inner-Iter.     Column Row Layer    Maximum-Head-Change  Column Row Layer    Maximum-Flux-Residual          L2-NORM 
          0                11           1            30   31     1       0.1580507615E-04      42   30    2         0.1020358840E-02      0.1491858849E-01
          0                12           1            33   30     1       0.1563213922E-04      38   26    2         0.7908180086E-03      0.1345397018E-01
          0                13           1            29   30     1       0.1267815235E-04      42   30    2         0.8172925307E-03      0.1223311264E-01
          0                14           1            33   28     1       0.1235227150E-04      38   26    2         0.6613833528E-03      0.1103937849E-01
          0                15           1            29   30     1       0.1042455071E-04      42   30    2         0.6549690165E-03      0.1001938469E-01
          0                16           1            33   28     1       0.9934853602E-05      38   26    2         0.5554719810E-03      0.9062228906E-02

    ------------------------------------------------
       NWT REQUIRED           16 OUTER ITERATIONS 
       AND A TOTAL OF         16 INNER ITERATIONS.
    ------------------------------------------------

 OUTPUT CONTROL FOR STRESS PERIOD    1   TIME STEP  239
    SAVE HEAD FOR ALL LAYERS
 SOLVING FOR ZETA FOR LAYER     1 ZONE     2

     736 UPPER PART EQS.       730 LOWER PART EQS.    BAND WIDTH + 1 =   35
 STRESS PERIOD=  1 TIMESTEP=239 LAYER=  1 ZONE=  2 ACTIVE CELLS= 1466 NUMBER OF EQUATIONS=    1466
 SOLVING FOR ZETA FOR LAYER     2 ZONE     2

     321 UPPER PART EQS.       324 LOWER PART EQS.    BAND WIDTH + 1 =   24
 STRESS PERIOD=  1 TIMESTEP=239 LAYER=  2 ZONE=  2 ACTIVE CELLS=  645 NUMBER OF EQUATIONS=     645
 UBUDSV SAVING "      ZETASRF  1" ON UNIT 55 AT TIME STEP239, STRESS PERIOD    1

 HEAD WILL BE SAVED ON UNIT   51 AT END OF TIME STEP  239, STRESS PERIOD    1
 
 SOLVING FOR HEAD 
                                                   Max.-Head-Change                         Max.-Flux-Residual
  Residual-Control   Outer-Iter.   Inner-Iter.     Column Row Layer    Maximum-Head-Change  Column Row Layer    Maximum-Flux-Residual          L2-NORM 
          0                 1           1            17   33     2      -0.5911762742E-03      53   50    1        -0.4005088391E+00      0.3772301770E+01
          0                 2           1            39   24     1       0.7948320371E-04      21   19    2        -0.1591811728E-01      0.1930417025E+00
          0                 3           1            35   26     1       0.7826633723E-04      29   24    1         0.3793400746E-02      0.6922380244E-01
          0                 4           1            31   30     1       0.5156683818E-04      32   29    1         0.3036618215E-02      0.4212141413E-01
          0                 5           1            31   31     2       0.5030192147E-04      30   30    2         0.2332409210E-02      0.3016461149E-01
          0                 6           1            32   31     1       0.3221869091E-04      32   32    2         0.1713900104E-02      0.2358425589E-01
          0                 7           1            31   31     2       0.2934277607E-04      30   30    2         0.1357812120E-02      0.1952206170E-01
          0                 8           1            32   31     1       0.2252687155E-04      39   29    2         0.1098100722E-02      0.1701171325E-01
          0                 9           1            31   31     2       0.1902952735E-04      20   32    2         0.9770333463E-03      0.1507820586E-01
          0                10           1            33   30     1       0.1689330838E-04      38   26    2         0.8339867106E-03      0.1360267337E-01
                                                   Max.-Head-Change                         Max.-Flux-Residual
  Residual-Control   Outer-Iter.   Inner-Iter.     Column Row Layer    Maximum-Head-Change  Column Row Layer    Maximum-Flux-Residual          L2-NORM 
          0                11           1            31   32     1       0.1373192453E-04      23   41    2         0.7780389849E-03      0.1229799490E-01
          0                12           1            33   30     1       0.1300550292E-04      38   26    2         0.6809304612E-03      0.1112946584E-01
          0                13           1            29   30     1       0.1068672226E-04      23   41    2         0.6324717559E-03      0.1010050667E-01
          0                14           1            33   28     1       0.1033951799E-04      38   26    2         0.5694896662E-03      0.9136572536E-02
          0                15           1            29   30     1       0.8619532724E-05      23   41    2         0.5088162018E-03      0.8291295128E-02

    ------------------------------------------------
       NWT REQUIRED           15 OUTER ITERATIONS 
       AND A TOTAL OF         15 INNER ITERATIONS.
    ------------------------------------------------

 OUTPUT CONTROL FOR STRESS PERIOD    1   TIME STEP  240
    SAVE HEAD FOR ALL LAYERS
 SOLVING FOR ZETA FOR LAYER     1 ZONE     2

     732 UPPER PART EQS.       734 LOWER PART EQS.    BAND WIDTH + 1 =   31
 STRESS PERIOD=  1 TIMESTEP=240 LAYER=  1 ZONE=  2 ACTIVE CELLS= 1466 NUMBER OF EQUATIONS=    1466
 SOLVING FOR ZETA FOR LAYER     2 ZONE     2

     329 UPPER PART EQS.       340 LOWER PART EQS.    BAND WIDTH + 1 =   26
 STRESS PERIOD=  1 TIMESTEP=240 LAYER=  2 ZONE=  2 ACTIVE CELLS=  669 NUMBER OF EQUATIONS=     669
 UBUDSV SAVING "      ZETASRF  1" ON UNIT 55 AT TIME STEP240, STRESS PERIOD    1

 HEAD WILL BE SAVED ON UNIT   51 AT END OF TIME STEP  240, STRESS PERIOD    1
 
 SOLVING FOR HEAD 
                                                   Max.-Head-Change                         Max.-Flux-Residual
  Residual-Control   Outer-Iter.   Inner-Iter.     Column Row Layer    Maximum-Head-Change  Column Row Layer    Maximum-Flux-Residual          L2-NORM 
          0                 1           1            53   50     1       0.6098188095E-03      12   53    1         0.4615354378E+00      0.3541001522E+01
          0                 2           1            29   15     2      -0.7925875761E-04      22   18    2        -0.1586951228E-01      0.1855337245E+00
          0                 3           1            28   25     1       0.8257052373E-04      30   23    1         0.3931860664E-02      0.7034028902E-01
          0                 4           1            31   30     1       0.4947927456E-04      32   29    1         0.3018641694E-02      0.4329788306E-01
          0                 5           1            31   31     2       0.5380650445E-04      30   30    2         0.2331803991E-02      0.3081397485E-01
          0                 6           1            32   31     1       0.3015372509E-04      34   31    1         0.1689488432E-02      0.2407091861E-01
          0                 7           1            31   31     2       0.3257308837E-04      30   30    2         0.1374988603E-02      0.1996174479E-01
          0                 8           1            32   31     1       0.2061298256E-04      38   26    2         0.1130137057E-02      0.1752611507E-01
          0                 9           1            31   31     2       0.2157322381E-04      23   41    2         0.9423761185E-03      0.1547357610E-01
          0                10           1            33   30     1       0.1554621248E-04      38   26    2         0.8715455828E-03      0.1412644268E-01
                                                   Max.-Head-Change                         Max.-Flux-Residual
  Residual-Control   Outer-Iter.   Inner-Iter.     Column Row Layer    Maximum-Head-Change  Column Row Layer    Maximum-Flux-Residual          L2-NORM 
          0                11           1            31   32     1       0.1539002605E-04      23   41    2         0.7880858540E-03      0.1263943277E-01
          0                12           1            33   28     1       0.1223672799E-04      38   26    2         0.7089898661E-03      0.1157803472E-01
          0                13           1            31   32     1       0.1174814914E-04      23   41    2         0.6432099455E-03      0.1039637243E-01
          0                14           1            33   28     1       0.9951107399E-05      38   26    2         0.5889659318E-03      0.9498381017E-02

    ------------------------------------------------
       NWT REQUIRED           14 OUTER ITERATIONS 
       AND A TOTAL OF         14 INNER ITERATIONS.
    ------------------------------------------------

 OUTPUT CONTROL FOR STRESS PERIOD    1   TIME STEP  241
    SAVE HEAD FOR ALL LAYERS
 SOLVING FOR ZETA FOR LAYER     1 ZONE     2

     728 UPPER PART EQS.       724 LOWER PART EQS.    BAND WIDTH + 1 =   29
 STRESS PERIOD=  1 TIMESTEP=241 LAYER=  1 ZONE=  2 ACTIVE CELLS= 1452 NUMBER OF EQUATIONS=    1452
 SOLVING FOR ZETA FOR LAYER     2 ZONE     2

     341 UPPER PART EQS.       340 LOWER PART EQS.    BAND WIDTH + 1 =   26
 STRESS PERIOD=  1 TIMESTEP=241 LAYER=  2 ZONE=  2 ACTIVE CELLS=  681 NUMBER OF EQUATIONS=     681
 UBUDSV SAVING "      ZETASRF  1" ON UNIT 55 AT TIME STEP241, STRESS PERIOD    1

 HEAD WILL BE SAVED ON UNIT   51 AT END OF TIME STEP  241, STRESS PERIOD    1
 
 SOLVING FOR HEAD 
                                                   Max.-Head-Change                         Max.-Flux-Residual
  Residual-Control   Outer-Iter.   Inner-Iter.     Column Row Layer    Maximum-Head-Change  Column Row Layer    Maximum-Flux-Residual          L2-NORM 
          0                 1           1            20   42     2      -0.5741926926E-03      53   51    1        -0.3676941042E+00      0.3430344450E+01
          0                 2           1            38   23     1       0.7955016005E-04      22   18    2        -0.1513860936E-01      0.1862371758E+00
          0                 3           1            35   26     1       0.7903374537E-04      23   41    2         0.3857702225E-02      0.7037551566E-01
          0                 4           1            31   30     1       0.4923162107E-04      31   29    2         0.2981428720E-02      0.4256184347E-01
          0                 5           1            31   31     2       0.5134324350E-04      30   30    2         0.2306872700E-02      0.2995515178E-01
          0                 6           1            32   31     1       0.2989552579E-04      32   32    2         0.1661091042E-02      0.2295347376E-01
          0                 7           1            31   31     2       0.2965583039E-04      30   30    2         0.1329929530E-02      0.1880231535E-01
          0                 8           1            32   31     1       0.2058071365E-04      39   29    2         0.1041756416E-02      0.1630296872E-01
          0                 9           1            31   31     2       0.1896447853E-04      41   23    2         0.8943251767E-03      0.1441354028E-01
          0                10           1            33   30     1       0.1551614522E-04      38   26    2         0.7752421587E-03      0.1304536530E-01
                                                   Max.-Head-Change                         Max.-Flux-Residual
  Residual-Control   Outer-Iter.   Inner-Iter.     Column Row Layer    Maximum-Head-Change  Column Row Layer    Maximum-Flux-Residual          L2-NORM 
          0                11           1            31   32     1       0.1336857200E-04      41   23    2         0.7561833387E-03      0.1179302609E-01
          0                12           1            33   28     1       0.1208156762E-04      20   42    2         0.6708200718E-03      0.1068952010E-01
          0                13           1            31   32     1       0.1023382079E-04      42   22    2         0.6380099334E-03      0.9718674343E-02
          0                14           1            33   28     1       0.9672955559E-05      42   22    2         0.5686963743E-03      0.8779803048E-02

    ------------------------------------------------
       NWT REQUIRED           14 OUTER ITERATIONS 
       AND A TOTAL OF         14 INNER ITERATIONS.
    ------------------------------------------------

 OUTPUT CONTROL FOR STRESS PERIOD    1   TIME STEP  242
    SAVE HEAD FOR ALL LAYERS
 SOLVING FOR ZETA FOR LAYER     1 ZONE     2

     742 UPPER PART EQS.       740 LOWER PART EQS.    BAND WIDTH + 1 =   32
 STRESS PERIOD=  1 TIMESTEP=242 LAYER=  1 ZONE=  2 ACTIVE CELLS= 1482 NUMBER OF EQUATIONS=    1482
 SOLVING FOR ZETA FOR LAYER     2 ZONE     2

     341 UPPER PART EQS.       348 LOWER PART EQS.    BAND WIDTH + 1 =   26
 STRESS PERIOD=  1 TIMESTEP=242 LAYER=  2 ZONE=  2 ACTIVE CELLS=  689 NUMBER OF EQUATIONS=     689
 UBUDSV SAVING "      ZETASRF  1" ON UNIT 55 AT TIME STEP242, STRESS PERIOD    1

 HEAD WILL BE SAVED ON UNIT   51 AT END OF TIME STEP  242, STRESS PERIOD    1
 
 SOLVING FOR HEAD 
                                                   Max.-Head-Change                         Max.-Flux-Residual
  Residual-Control   Outer-Iter.   Inner-Iter.     Column Row Layer    Maximum-Head-Change  Column Row Layer    Maximum-Flux-Residual          L2-NORM 
          0                 1           1            17   35     2      -0.5644902114E-03      51    9    1         0.3949194278E+00      0.3242284625E+01
          0                 2           1            32   48     2      -0.7820200328E-04      22   18    2        -0.1519946847E-01      0.1776205944E+00
          0                 3           1            34   25     1       0.7833412498E-04      30   23    1         0.3816498131E-02      0.6528418698E-01
          0                 4           1            31   30     1       0.5027752548E-04      32   29    1         0.2951915271E-02      0.4141683574E-01
          0                 5           1            31   31     2       0.5252399640E-04      30   30    2         0.2315985575E-02      0.3100770245E-01
          0                 6           1            32   31     1       0.3262540125E-04      32   32    2         0.1732332749E-02      0.2539563611E-01
          0                 7           1            31   31     2       0.3256595919E-04      30   30    2         0.1417326076E-02      0.2170883800E-01
          0                 8           1            33   30     1       0.2348658974E-04      38   26    2         0.1195652207E-02      0.1941192719E-01
          0                 9           1            31   31     2       0.2184089124E-04      23   41    2         0.1088641240E-02      0.1732098667E-01
          0                10           1            33   30     1       0.1793278280E-04      19   41    2         0.9486177004E-03      0.1579246187E-01
                                                   Max.-Head-Change                         Max.-Flux-Residual
  Residual-Control   Outer-Iter.   Inner-Iter.     Column Row Layer    Maximum-Head-Change  Column Row Layer    Maximum-Flux-Residual          L2-NORM 
          0                11           1            31   32     1       0.1622134269E-04      23   41    2         0.9023371547E-03      0.1423137288E-01
          0                12           1            33   28     1       0.1403581251E-04      19   41    2         0.8017051548E-03      0.1296605485E-01
          0                13           1            31   32     1       0.1281417973E-04      23   41    2         0.7311424368E-03      0.1170019094E-01
          0                14           1            33   28     1       0.1128088463E-04      19   41    2         0.6583053498E-03      0.1064950556E-01
          0                15           1            31   32     1       0.1037370675E-04      23   41    2         0.5881342727E-03      0.9605130637E-02
          0                16           1            33   28     1       0.9196026543E-05      38   26    2         0.5460350897E-03      0.8741515826E-02

    ------------------------------------------------
       NWT REQUIRED           16 OUTER ITERATIONS 
       AND A TOTAL OF         16 INNER ITERATIONS.
    ------------------------------------------------

 OUTPUT CONTROL FOR STRESS PERIOD    1   TIME STEP  243
    SAVE HEAD FOR ALL LAYERS
 SOLVING FOR ZETA FOR LAYER     1 ZONE     2

     722 UPPER PART EQS.       724 LOWER PART EQS.    BAND WIDTH + 1 =   35
 STRESS PERIOD=  1 TIMESTEP=243 LAYER=  1 ZONE=  2 ACTIVE CELLS= 1446 NUMBER OF EQUATIONS=    1446
 SOLVING FOR ZETA FOR LAYER     2 ZONE     2

     341 UPPER PART EQS.       348 LOWER PART EQS.    BAND WIDTH + 1 =   26
 STRESS PERIOD=  1 TIMESTEP=243 LAYER=  2 ZONE=  2 ACTIVE CELLS=  689 NUMBER OF EQUATIONS=     689
 UBUDSV SAVING "      ZETASRF  1" ON UNIT 55 AT TIME STEP243, STRESS PERIOD    1

 HEAD WILL BE SAVED ON UNIT   51 AT END OF TIME STEP  243, STRESS PERIOD    1
 
 SOLVING FOR HEAD 
                                                   Max.-Head-Change                         Max.-Flux-Residual
  Residual-Control   Outer-Iter.   Inner-Iter.     Column Row Layer    Maximum-Head-Change  Column Row Layer    Maximum-Flux-Residual          L2-NORM 
          0                 1           1            17   36     2      -0.5612157291E-03      51    9    1        -0.3742438640E+00      0.3245446865E+01
          0                 2           1            39   24     1       0.7778309858E-04      22   18    2        -0.1532355063E-01      0.1826863177E+00
          0                 3           1            35   26     1       0.7566048649E-04      23   41    2         0.3870797627E-02      0.6984017065E-01
          0                 4           1            31   30     1       0.4799604688E-04      32   29    1         0.2872420109E-02      0.4209423079E-01
          0                 5           1            31   31     2       0.4978515432E-04      30   30    2         0.2256537127E-02      0.2962803576E-01
          0                 6           1            32   31     1       0.2979856809E-04      33   31    2         0.1635348460E-02      0.2267751707E-01
          0                 7           1            31   31     2       0.2887565296E-04      30   30    2         0.1312792685E-02      0.1854231588E-01
          0                 8           1            32   31     1       0.2043991782E-04      33   31    2         0.1019705703E-02      0.1606492891E-01
          0                 9           1            31   32     1       0.1866981690E-04      23   41    2         0.8720143586E-03      0.1419190526E-01
          0                10           1            33   30     1       0.1520851507E-04      20   42    2         0.7597342542E-03      0.1284378740E-01
                                                   Max.-Head-Change                         Max.-Flux-Residual
  Residual-Control   Outer-Iter.   Inner-Iter.     Column Row Layer    Maximum-Head-Change  Column Row Layer    Maximum-Flux-Residual          L2-NORM 
          0                11           1            31   32     1       0.1331616426E-04      23   41    2         0.7349698255E-03      0.1159546229E-01
          0                12           1            33   28     1       0.1180976502E-04      20   42    2         0.6748673097E-03      0.1052945938E-01
          0                13           1            31   32     1       0.1020893968E-04      20   42    2         0.6306876625E-03      0.9548815470E-02
          0                14           1            33   28     1       0.9455425144E-05      20   42    2         0.5673398917E-03      0.8650894272E-02

    ------------------------------------------------
       NWT REQUIRED           14 OUTER ITERATIONS 
       AND A TOTAL OF         14 INNER ITERATIONS.
    ------------------------------------------------

 OUTPUT CONTROL FOR STRESS PERIOD    1   TIME STEP  244
    SAVE HEAD FOR ALL LAYERS
 SOLVING FOR ZETA FOR LAYER     1 ZONE     2

     734 UPPER PART EQS.       738 LOWER PART EQS.    BAND WIDTH + 1 =   30
 STRESS PERIOD=  1 TIMESTEP=244 LAYER=  1 ZONE=  2 ACTIVE CELLS= 1472 NUMBER OF EQUATIONS=    1472
 SOLVING FOR ZETA FOR LAYER     2 ZONE     2

     349 UPPER PART EQS.       348 LOWER PART EQS.    BAND WIDTH + 1 =   26
 STRESS PERIOD=  1 TIMESTEP=244 LAYER=  2 ZONE=  2 ACTIVE CELLS=  697 NUMBER OF EQUATIONS=     697
 UBUDSV SAVING "      ZETASRF  1" ON UNIT 55 AT TIME STEP244, STRESS PERIOD    1

 HEAD WILL BE SAVED ON UNIT   51 AT END OF TIME STEP  244, STRESS PERIOD    1
 
 SOLVING FOR HEAD 
                                                   Max.-Head-Change                         Max.-Flux-Residual
  Residual-Control   Outer-Iter.   Inner-Iter.     Column Row Layer    Maximum-Head-Change  Column Row Layer    Maximum-Flux-Residual          L2-NORM 
          0                 1           1            17   36     2      -0.5420649281E-03      53   11    1         0.3884109857E+00      0.3259262119E+01
          0                 2           1            32   48     2      -0.7428701379E-04      22   18    2        -0.1506574789E-01      0.1737125112E+00
          0                 3           1            34   25     1       0.7707027970E-04      30   23    1         0.3705960831E-02      0.6441577997E-01
          0                 4           1            31   30     1       0.4809641507E-04      32   29    1         0.2871617325E-02      0.4047203397E-01
          0                 5           1            31   31     2       0.5146135760E-04      30   30    2         0.2241152398E-02      0.2980617991E-01
          0                 6           1            32   31     1       0.3039556744E-04      32   32    2         0.1655315288E-02      0.2401240008E-01
          0                 7           1            31   31     2       0.3156523850E-04      30   30    2         0.1353678260E-02      0.2033413223E-01
          0                 8           1            33   30     1       0.2184431682E-04      38   26    2         0.1173457072E-02      0.1806314801E-01
          0                 9           1            31   31     2       0.2059882673E-04      23   41    2         0.1006491365E-02      0.1608049817E-01
          0                10           1            33   30     1       0.1698386619E-04      38   26    2         0.9134528295E-03      0.1464932107E-01
                                                   Max.-Head-Change                         Max.-Flux-Residual
  Residual-Control   Outer-Iter.   Inner-Iter.     Column Row Layer    Maximum-Head-Change  Column Row Layer    Maximum-Flux-Residual          L2-NORM 
          0                11           1            31   32     1       0.1487605025E-04      23   41    2         0.8407556800E-03      0.1321414163E-01
          0                12           1            33   28     1       0.1345719466E-04      38   26    2         0.7469663761E-03      0.1201712717E-01
          0                13           1            31   32     1       0.1159108562E-04      23   41    2         0.6836534870E-03      0.1088154836E-01
          0                14           1            33   28     1       0.1086600559E-04      38   26    2         0.6229755413E-03      0.9868600497E-02
          0                15           1            31   32     1       0.9349850782E-05      23   41    2         0.5497064177E-03      0.8940831165E-02

    ------------------------------------------------
       NWT REQUIRED           15 OUTER ITERATIONS 
       AND A TOTAL OF         15 INNER ITERATIONS.
    ------------------------------------------------

 OUTPUT CONTROL FOR STRESS PERIOD    1   TIME STEP  245
    SAVE HEAD FOR ALL LAYERS
 SOLVING FOR ZETA FOR LAYER     1 ZONE     2

     730 UPPER PART EQS.       714 LOWER PART EQS.    BAND WIDTH + 1 =   35
 STRESS PERIOD=  1 TIMESTEP=245 LAYER=  1 ZONE=  2 ACTIVE CELLS= 1444 NUMBER OF EQUATIONS=    1444
 SOLVING FOR ZETA FOR LAYER     2 ZONE     2

     349 UPPER PART EQS.       356 LOWER PART EQS.    BAND WIDTH + 1 =   28
 STRESS PERIOD=  1 TIMESTEP=245 LAYER=  2 ZONE=  2 ACTIVE CELLS=  705 NUMBER OF EQUATIONS=     705
 UBUDSV SAVING "      ZETASRF  1" ON UNIT 55 AT TIME STEP245, STRESS PERIOD    1

 HEAD WILL BE SAVED ON UNIT   51 AT END OF TIME STEP  245, STRESS PERIOD    1
 
 SOLVING FOR HEAD 
                                                   Max.-Head-Change                         Max.-Flux-Residual
  Residual-Control   Outer-Iter.   Inner-Iter.     Column Row Layer    Maximum-Head-Change  Column Row Layer    Maximum-Flux-Residual          L2-NORM 
          0                 1           1            17   37     2      -0.5373178377E-03      11    9    1        -0.3944524841E+00      0.3474198875E+01
          0                 2           1            28   48     2      -0.7575821151E-04      22   18    2        -0.1563506646E-01      0.1835703996E+00
          0                 3           1            35   26     1       0.7152637721E-04      23   41    2         0.3733243677E-02      0.6662100959E-01
          0                 4           1            31   30     1       0.4799241230E-04      32   29    1         0.2789542528E-02      0.4042583286E-01
          0                 5           1            31   31     2       0.4809103953E-04      30   30    2         0.2212646147E-02      0.2918056308E-01
          0                 6           1            32   31     1       0.3102174170E-04      32   32    2         0.1642456312E-02      0.2294586967E-01
          0                 7           1            31   31     2       0.2861589514E-04      30   30    2         0.1312016794E-02      0.1915671229E-01
          0                 8           1            32   31     1       0.2183980973E-04      39   29    2         0.1064635627E-02      0.1675999705E-01
          0                 9           1            31   32     1       0.1865942045E-04      23   41    2         0.9457971190E-03      0.1492453448E-01
          0                10           1            33   30     1       0.1641394737E-04      39   29    2         0.8071167524E-03      0.1347147783E-01
                                                   Max.-Head-Change                         Max.-Flux-Residual
  Residual-Control   Outer-Iter.   Inner-Iter.     Column Row Layer    Maximum-Head-Change  Column Row Layer    Maximum-Flux-Residual          L2-NORM 
          0                11           1            31   32     1       0.1346563107E-04      23   41    2         0.7921518031E-03      0.1221640647E-01
          0                12           1            33   28     1       0.1272254628E-04      39   29    2         0.6480120816E-03      0.1103063812E-01
          0                13           1            31   32     1       0.1041137965E-04      23   41    2         0.6452713209E-03      0.1004510194E-01
          0                14           1            33   28     1       0.1020581020E-04      38   26    2         0.5366638876E-03      0.9048719314E-02
          0                15           1            31   32     1       0.8322491076E-05      23   41    2         0.5196913387E-03      0.8247262265E-02

    ------------------------------------------------
       NWT REQUIRED           15 OUTER ITERATIONS 
       AND A TOTAL OF         15 INNER ITERATIONS.
    ------------------------------------------------

 OUTPUT CONTROL FOR STRESS PERIOD    1   TIME STEP  246
    SAVE HEAD FOR ALL LAYERS
 SOLVING FOR ZETA FOR LAYER     1 ZONE     2

     726 UPPER PART EQS.       714 LOWER PART EQS.    BAND WIDTH + 1 =   39
 STRESS PERIOD=  1 TIMESTEP=246 LAYER=  1 ZONE=  2 ACTIVE CELLS= 1440 NUMBER OF EQUATIONS=    1440
 SOLVING FOR ZETA FOR LAYER     2 ZONE     2

     349 UPPER PART EQS.       362 LOWER PART EQS.    BAND WIDTH + 1 =   28
 STRESS PERIOD=  1 TIMESTEP=246 LAYER=  2 ZONE=  2 ACTIVE CELLS=  711 NUMBER OF EQUATIONS=     711
 UBUDSV SAVING "      ZETASRF  1" ON UNIT 55 AT TIME STEP246, STRESS PERIOD    1

 HEAD WILL BE SAVED ON UNIT   51 AT END OF TIME STEP  246, STRESS PERIOD    1
 
 SOLVING FOR HEAD 
                                                   Max.-Head-Change                         Max.-Flux-Residual
  Residual-Control   Outer-Iter.   Inner-Iter.     Column Row Layer    Maximum-Head-Change  Column Row Layer    Maximum-Flux-Residual          L2-NORM 
          0                 1           1            50   53     1       0.6412395753E-03       9   50    1         0.4872694115E+00      0.3622771973E+01
          0                 2           1            32   48     2      -0.7491175191E-04      22   18    2        -0.1538959971E-01      0.1794431218E+00
          0                 3           1            34   25     1       0.7659690447E-04      26   23    1         0.3662257579E-02      0.6810434059E-01
          0                 4           1            31   30     1       0.4708597749E-04      32   29    1         0.2817138150E-02      0.4164003115E-01
          0                 5           1            31   31     2       0.5061469571E-04      30   30    2         0.2217404745E-02      0.2971596681E-01
          0                 6           1            32   31     1       0.2981604184E-04      33   31    2         0.1629076923E-02      0.2328548244E-01
          0                 7           1            31   31     2       0.3020212117E-04      30   30    2         0.1323377535E-02      0.1940207558E-01
          0                 8           1            32   31     1       0.2095408056E-04      39   29    2         0.1052743908E-02      0.1703906399E-01
          0                 9           1            31   31     2       0.1980292525E-04      41   23    2         0.9556798650E-03      0.1514889514E-01
          0                10           1            33   30     1       0.1587114464E-04      37   23    2         0.8080456101E-03      0.1376557663E-01
                                                   Max.-Head-Change                         Max.-Flux-Residual
  Residual-Control   Outer-Iter.   Inner-Iter.     Column Row Layer    Maximum-Head-Change  Column Row Layer    Maximum-Flux-Residual          L2-NORM 
          0                11           1            31   32     1       0.1426856261E-04      41   23    2         0.8038642339E-03      0.1243004304E-01
          0                12           1            33   28     1       0.1245167797E-04      20   40    2         0.6689498343E-03      0.1130271114E-01
          0                13           1            31   32     1       0.1100144840E-04      41   23    2         0.6649021943E-03      0.1023801000E-01
          0                14           1            33   28     1       0.1003262934E-04      20   40    2         0.5660363703E-03      0.9284249774E-02
          0                15           1            31   32     1       0.8774916909E-05      41   23    2         0.5446774866E-03      0.8414572055E-02

    ------------------------------------------------
       NWT REQUIRED           15 OUTER ITERATIONS 
       AND A TOTAL OF         15 INNER ITERATIONS.
    ------------------------------------------------

 OUTPUT CONTROL FOR STRESS PERIOD    1   TIME STEP  247
    SAVE HEAD FOR ALL LAYERS
 SOLVING FOR ZETA FOR LAYER     1 ZONE     2

     724 UPPER PART EQS.       706 LOWER PART EQS.    BAND WIDTH + 1 =   37
 STRESS PERIOD=  1 TIMESTEP=247 LAYER=  1 ZONE=  2 ACTIVE CELLS= 1430 NUMBER OF EQUATIONS=    1430
 SOLVING FOR ZETA FOR LAYER     2 ZONE     2

     349 UPPER PART EQS.       364 LOWER PART EQS.    BAND WIDTH + 1 =   28
 STRESS PERIOD=  1 TIMESTEP=247 LAYER=  2 ZONE=  2 ACTIVE CELLS=  713 NUMBER OF EQUATIONS=     713
 UBUDSV SAVING "      ZETASRF  1" ON UNIT 55 AT TIME STEP247, STRESS PERIOD    1

 HEAD WILL BE SAVED ON UNIT   51 AT END OF TIME STEP  247, STRESS PERIOD    1
 
 SOLVING FOR HEAD 
                                                   Max.-Head-Change                         Max.-Flux-Residual
  Residual-Control   Outer-Iter.   Inner-Iter.     Column Row Layer    Maximum-Head-Change  Column Row Layer    Maximum-Flux-Residual          L2-NORM 
          0                 1           1            17   37     2      -0.5334823936E-03      53   51    1        -0.3791761555E+00      0.2981671651E+01
          0                 2           1            24   48     2      -0.7699231835E-04      23   17    2        -0.1459365057E-01      0.1769618412E+00
          0                 3           1            28   25     1       0.6989789877E-04      26   23    1         0.3669815285E-02      0.6705544636E-01
          0                 4           1            31   30     1       0.4548278748E-04      32   28    2         0.2681040133E-02      0.4034427423E-01
          0                 5           1            31   31     2       0.4732328087E-04      30   30    2         0.2143032987E-02      0.2848438078E-01
          0                 6           1            32   31     1       0.2898502636E-04      33   31    2         0.1579509669E-02      0.2195648574E-01
          0                 7           1            31   31     2       0.2812546212E-04      30   30    2         0.1267031561E-02      0.1803211494E-01
          0                 8           1            32   31     1       0.1979747788E-04      33   31    2         0.9913632534E-03      0.1565196995E-01
          0                 9           1            31   31     2       0.1849772638E-04      41   23    2         0.8307582323E-03      0.1382960611E-01
          0                10           1            33   30     1       0.1453971109E-04      37   23    2         0.7518742259E-03      0.1252247008E-01
                                                   Max.-Head-Change                         Max.-Flux-Residual
  Residual-Control   Outer-Iter.   Inner-Iter.     Column Row Layer    Maximum-Head-Change  Column Row Layer    Maximum-Flux-Residual          L2-NORM 
          0                11           1            31   32     1       0.1338350740E-04      41   23    2         0.6959697681E-03      0.1127306978E-01
          0                12           1            34   29     1       0.1119104894E-04      37   23    2         0.6248729220E-03      0.1026423292E-01
          0                13           1            31   32     1       0.1034290355E-04      41   23    2         0.5759169690E-03      0.9263340098E-02
          0                14           1            34   29     1       0.8904250830E-05      37   23    2         0.5280515117E-03      0.8430565128E-02

    ------------------------------------------------
       NWT REQUIRED           14 OUTER ITERATIONS 
       AND A TOTAL OF         14 INNER ITERATIONS.
    ------------------------------------------------

 OUTPUT CONTROL FOR STRESS PERIOD    1   TIME STEP  248
    SAVE HEAD FOR ALL LAYERS
 SOLVING FOR ZETA FOR LAYER     1 ZONE     2

     718 UPPER PART EQS.       722 LOWER PART EQS.    BAND WIDTH + 1 =   27
 STRESS PERIOD=  1 TIMESTEP=248 LAYER=  1 ZONE=  2 ACTIVE CELLS= 1440 NUMBER OF EQUATIONS=    1440
 SOLVING FOR ZETA FOR LAYER     2 ZONE     2

     357 UPPER PART EQS.       364 LOWER PART EQS.    BAND WIDTH + 1 =   24
 STRESS PERIOD=  1 TIMESTEP=248 LAYER=  2 ZONE=  2 ACTIVE CELLS=  721 NUMBER OF EQUATIONS=     721
 UBUDSV SAVING "      ZETASRF  1" ON UNIT 55 AT TIME STEP248, STRESS PERIOD    1

 HEAD WILL BE SAVED ON UNIT   51 AT END OF TIME STEP  248, STRESS PERIOD    1
 
 SOLVING FOR HEAD 
                                                   Max.-Head-Change                         Max.-Flux-Residual
  Residual-Control   Outer-Iter.   Inner-Iter.     Column Row Layer    Maximum-Head-Change  Column Row Layer    Maximum-Flux-Residual          L2-NORM 
          0                 1           1            17   37     2      -0.5357088550E-03      11    9    1         0.3903486522E+00      0.3195675829E+01
          0                 2           1            32   48     2      -0.7521452877E-04      28   16    2        -0.1370816633E-01      0.1678710905E+00
          0                 3           1            34   25     1       0.7074913977E-04      26   23    1         0.3618975438E-02      0.6356328107E-01
          0                 4           1            31   30     1       0.4596058429E-04      32   28    2         0.2674499328E-02      0.3977226052E-01
          0                 5           1            31   31     2       0.4979638684E-04      30   30    2         0.2166421575E-02      0.2958532267E-01
          0                 6           1            32   31     1       0.3075837830E-04      33   31    2         0.1645158257E-02      0.2410219198E-01
          0                 7           1            31   31     2       0.3070754295E-04      30   30    2         0.1342738091E-02      0.2051680754E-01
          0                 8           1            33   30     1       0.2269003455E-04      40   28    2         0.1113724307E-02      0.1822413308E-01
          0                 9           1            31   32     1       0.2000310464E-04      43   33    2         0.1024874333E-02      0.1625892926E-01
          0                10           1            34   31     1       0.1778399115E-04      40   28    2         0.8491781032E-03      0.1472822700E-01
                                                   Max.-Head-Change                         Max.-Flux-Residual
  Residual-Control   Outer-Iter.   Inner-Iter.     Column Row Layer    Maximum-Head-Change  Column Row Layer    Maximum-Flux-Residual          L2-NORM 
          0                11           1            31   32     1       0.1456887277E-04      43   33    2         0.8416184625E-03      0.1332067249E-01
          0                12           1            34   29     1       0.1405842988E-04      37   23    2         0.6879343363E-03      0.1204820716E-01
          0                13           1            31   32     1       0.1146258812E-04      43   33    2         0.6807807897E-03      0.1093433130E-01
          0                14           1            34   29     1       0.1121511956E-04      37   23    2         0.5827125757E-03      0.9878110293E-02
          0                15           1            31   30     1       0.9337213286E-05      43   33    2         0.5475049404E-03      0.8963919906E-02

    ------------------------------------------------
       NWT REQUIRED           15 OUTER ITERATIONS 
       AND A TOTAL OF         15 INNER ITERATIONS.
    ------------------------------------------------

 OUTPUT CONTROL FOR STRESS PERIOD    1   TIME STEP  249
    SAVE HEAD FOR ALL LAYERS
 SOLVING FOR ZETA FOR LAYER     1 ZONE     2

     722 UPPER PART EQS.       710 LOWER PART EQS.    BAND WIDTH + 1 =   35
 STRESS PERIOD=  1 TIMESTEP=249 LAYER=  1 ZONE=  2 ACTIVE CELLS= 1432 NUMBER OF EQUATIONS=    1432
 SOLVING FOR ZETA FOR LAYER     2 ZONE     2

     363 UPPER PART EQS.       364 LOWER PART EQS.    BAND WIDTH + 1 =   26
 STRESS PERIOD=  1 TIMESTEP=249 LAYER=  2 ZONE=  2 ACTIVE CELLS=  727 NUMBER OF EQUATIONS=     727
 UBUDSV SAVING "      ZETASRF  1" ON UNIT 55 AT TIME STEP249, STRESS PERIOD    1

 HEAD WILL BE SAVED ON UNIT   51 AT END OF TIME STEP  249, STRESS PERIOD    1
 
 SOLVING FOR HEAD 
                                                   Max.-Head-Change                         Max.-Flux-Residual
  Residual-Control   Outer-Iter.   Inner-Iter.     Column Row Layer    Maximum-Head-Change  Column Row Layer    Maximum-Flux-Residual          L2-NORM 
          0                 1           1            18   40     2      -0.5242029423E-03      53   51    1        -0.3835457575E+00      0.3004759920E+01
          0                 2           1            24   48     2      -0.7473407327E-04      38   46    2        -0.1385256206E-01      0.1708070289E+00
          0                 3           1            34   25     1       0.6741642877E-04      26   23    1         0.3530608912E-02      0.6534767947E-01
          0                 4           1            31   30     1       0.4477342674E-04      32   28    2         0.2609718381E-02      0.3964494191E-01
          0                 5           1            31   31     2       0.4703577401E-04      30   30    2         0.2116899246E-02      0.2845239271E-01
          0                 6           1            32   31     1       0.2928429163E-04      33   31    2         0.1581768468E-02      0.2235355945E-01
          0                 7           1            31   31     2       0.2855792061E-04      30   30    2         0.1277579624E-02      0.1861939446E-01
          0                 8           1            32   31     1       0.2051420530E-04      33   31    2         0.1008158999E-02      0.1630523296E-01
          0                 9           1            31   31     2       0.1878158812E-04      21   39    2         0.8933352395E-03      0.1448207956E-01
          0                10           1            32   32     2       0.1532868135E-04      39   25    2         0.7691600471E-03      0.1311382753E-01
                                                   Max.-Head-Change                         Max.-Flux-Residual
  Residual-Control   Outer-Iter.   Inner-Iter.     Column Row Layer    Maximum-Head-Change  Column Row Layer    Maximum-Flux-Residual          L2-NORM 
          0                11           1            31   32     1       0.1360180555E-04      21   39    2         0.7504387655E-03      0.1184149158E-01
          0                12           1            34   29     1       0.1189674724E-04      39   25    2         0.6232166064E-03      0.1074626509E-01
          0                13           1            31   32     1       0.1055184783E-04      21   39    2         0.6129938776E-03      0.9731070972E-02
          0                14           1            34   29     1       0.9474132209E-05      39   25    2         0.5152858013E-03      0.8821813878E-02

    ------------------------------------------------
       NWT REQUIRED           14 OUTER ITERATIONS 
       AND A TOTAL OF         14 INNER ITERATIONS.
    ------------------------------------------------

 OUTPUT CONTROL FOR STRESS PERIOD    1   TIME STEP  250
    SAVE HEAD FOR ALL LAYERS
 SOLVING FOR ZETA FOR LAYER     1 ZONE     2

     718 UPPER PART EQS.       720 LOWER PART EQS.    BAND WIDTH + 1 =   29
 STRESS PERIOD=  1 TIMESTEP=250 LAYER=  1 ZONE=  2 ACTIVE CELLS= 1438 NUMBER OF EQUATIONS=    1438
 SOLVING FOR ZETA FOR LAYER     2 ZONE     2

     369 UPPER PART EQS.       364 LOWER PART EQS.    BAND WIDTH + 1 =   26
 STRESS PERIOD=  1 TIMESTEP=250 LAYER=  2 ZONE=  2 ACTIVE CELLS=  733 NUMBER OF EQUATIONS=     733
 UBUDSV SAVING "      ZETASRF  1" ON UNIT 55 AT TIME STEP250, STRESS PERIOD    1

 HEAD WILL BE SAVED ON UNIT   51 AT END OF TIME STEP  250, STRESS PERIOD    1
 
 SOLVING FOR HEAD 
                                                   Max.-Head-Change                         Max.-Flux-Residual
  Residual-Control   Outer-Iter.   Inner-Iter.     Column Row Layer    Maximum-Head-Change  Column Row Layer    Maximum-Flux-Residual          L2-NORM 
          0                 1           1            18   40     2      -0.5100549538E-03      11    9    1         0.3861018375E+00      0.3025443736E+01
          0                 2           1            32   48     2      -0.7363572975E-04      38   46    2        -0.1322684442E-01      0.1636510749E+00
          0                 3           1            34   25     1       0.6930124644E-04      26   23    1         0.3522717143E-02      0.6280614601E-01
          0                 4           1            31   30     1       0.4484454836E-04      32   28    2         0.2613444493E-02      0.3924788061E-01
          0                 5           1            31   31     2       0.4938816600E-04      30   30    2         0.2131257378E-02      0.2925599525E-01
          0                 6           1            32   31     1       0.3003221965E-04      33   31    2         0.1617628787E-02      0.2384632723E-01
          0                 7           1            31   31     2       0.3090357611E-04      30   30    2         0.1327834026E-02      0.2032187089E-01
          0                 8           1            33   30     1       0.2191031038E-04      39   25    2         0.1095446823E-02      0.1807491207E-01
          0                 9           1            31   31     2       0.2032253630E-04      43   33    2         0.1012024280E-02      0.1611333165E-01
          0                10           1            34   31     1       0.1707946859E-04      39   25    2         0.8511305374E-03      0.1462878583E-01
                                                   Max.-Head-Change                         Max.-Flux-Residual
  Residual-Control   Outer-Iter.   Inner-Iter.     Column Row Layer    Maximum-Head-Change  Column Row Layer    Maximum-Flux-Residual          L2-NORM 
          0                11           1            31   32     1       0.1478213126E-04      43   33    2         0.8301677426E-03      0.1320375637E-01
          0                12           1            34   29     1       0.1357281537E-04      39   25    2         0.6910343030E-03      0.1197402694E-01
          0                13           1            31   32     1       0.1158576076E-04      43   33    2         0.6728067174E-03      0.1084444574E-01
          0                14           1            34   29     1       0.1086830908E-04      37   23    2         0.5719159593E-03      0.9820445215E-02
          0                15           1            31   30     1       0.9431171863E-05      43   33    2         0.5422784191E-03      0.8894819539E-02

    ------------------------------------------------
       NWT REQUIRED           15 OUTER ITERATIONS 
       AND A TOTAL OF         15 INNER ITERATIONS.
    ------------------------------------------------

 OUTPUT CONTROL FOR STRESS PERIOD    1   TIME STEP  251
    SAVE HEAD FOR ALL LAYERS
 SOLVING FOR ZETA FOR LAYER     1 ZONE     2

     720 UPPER PART EQS.       700 LOWER PART EQS.    BAND WIDTH + 1 =   39
 STRESS PERIOD=  1 TIMESTEP=251 LAYER=  1 ZONE=  2 ACTIVE CELLS= 1420 NUMBER OF EQUATIONS=    1420
 SOLVING FOR ZETA FOR LAYER     2 ZONE     2

     369 UPPER PART EQS.       364 LOWER PART EQS.    BAND WIDTH + 1 =   26
 STRESS PERIOD=  1 TIMESTEP=251 LAYER=  2 ZONE=  2 ACTIVE CELLS=  733 NUMBER OF EQUATIONS=     733
 UBUDSV SAVING "      ZETASRF  1" ON UNIT 55 AT TIME STEP251, STRESS PERIOD    1

 HEAD WILL BE SAVED ON UNIT   51 AT END OF TIME STEP  251, STRESS PERIOD    1
 
 SOLVING FOR HEAD 
                                                   Max.-Head-Change                         Max.-Flux-Residual
  Residual-Control   Outer-Iter.   Inner-Iter.     Column Row Layer    Maximum-Head-Change  Column Row Layer    Maximum-Flux-Residual          L2-NORM 
          0                 1           1            17   38     2      -0.5068821801E-03      54   28    1        -0.3052633662E+00      0.2789806484E+01
          0                 2           1            24   48     2      -0.7395702930E-04      23   17    2        -0.1279479580E-01      0.1663291272E+00
          0                 3           1            34   25     1       0.6575114653E-04      26   23    1         0.3433230487E-02      0.6512331676E-01
          0                 4           1            31   30     1       0.4245732667E-04      32   28    2         0.2513573528E-02      0.3912059034E-01
          0                 5           1            31   31     2       0.4625532318E-04      30   30    2         0.2040014634E-02      0.2760066261E-01
          0                 6           1            32   31     1       0.2714698436E-04      33   31    2         0.1515159123E-02      0.2131029407E-01
          0                 7           1            31   31     2       0.2821740824E-04      30   30    2         0.1223053299E-02      0.1754292913E-01
          0                 8           1            31   31     2       0.1844869761E-04      33   31    2         0.9533976259E-03      0.1528590038E-01
          0                 9           1            31   31     2       0.1853355708E-04      43   33    2         0.8193700635E-03      0.1349863567E-01
          0                10           1            32   32     2       0.1376338087E-04      39   25    2         0.7206486493E-03      0.1227038728E-01
                                                   Max.-Head-Change                         Max.-Flux-Residual
  Residual-Control   Outer-Iter.   Inner-Iter.     Column Row Layer    Maximum-Head-Change  Column Row Layer    Maximum-Flux-Residual          L2-NORM 
          0                11           1            31   32     1       0.1315235751E-04      43   33    2         0.6681508763E-03      0.1102144398E-01
          0                12           1            34   29     1       0.1073424737E-04      39   25    2         0.5843037524E-03      0.1005529175E-01
          0                13           1            31   30     1       0.1006778726E-04      43   33    2         0.5429240847E-03      0.9067461173E-02
          0                14           1            34   29     1       0.8563140432E-05      39   25    2         0.4852752979E-03      0.8254586192E-02

    ------------------------------------------------
       NWT REQUIRED           14 OUTER ITERATIONS 
       AND A TOTAL OF         14 INNER ITERATIONS.
    ------------------------------------------------

 OUTPUT CONTROL FOR STRESS PERIOD    1   TIME STEP  252
    SAVE HEAD FOR ALL LAYERS
 SOLVING FOR ZETA FOR LAYER     1 ZONE     2

     720 UPPER PART EQS.       720 LOWER PART EQS.    BAND WIDTH + 1 =   28
 STRESS PERIOD=  1 TIMESTEP=252 LAYER=  1 ZONE=  2 ACTIVE CELLS= 1440 NUMBER OF EQUATIONS=    1440
 SOLVING FOR ZETA FOR LAYER     2 ZONE     2

     377 UPPER PART EQS.       364 LOWER PART EQS.    BAND WIDTH + 1 =   28
 STRESS PERIOD=  1 TIMESTEP=252 LAYER=  2 ZONE=  2 ACTIVE CELLS=  741 NUMBER OF EQUATIONS=     741
 UBUDSV SAVING "      ZETASRF  1" ON UNIT 55 AT TIME STEP252, STRESS PERIOD    1

 HEAD WILL BE SAVED ON UNIT   51 AT END OF TIME STEP  252, STRESS PERIOD    1
 
 SOLVING FOR HEAD 
                                                   Max.-Head-Change                         Max.-Flux-Residual
  Residual-Control   Outer-Iter.   Inner-Iter.     Column Row Layer    Maximum-Head-Change  Column Row Layer    Maximum-Flux-Residual          L2-NORM 
          0                 1           1            17   38     2      -0.5101383739E-03      53   50    1        -0.4471696561E+00      0.3361833927E+01
          0                 2           1            32   48     2      -0.7360447492E-04      33   47    2        -0.1221237312E-01      0.1642715329E+00
          0                 3           1            27   24     1       0.6387414504E-04      26   23    1         0.3502680816E-02      0.5979749304E-01
          0                 4           1            31   30     1       0.4469188780E-04      32   28    2         0.2507009053E-02      0.3810038240E-01
          0                 5           1            31   31     2       0.4860412542E-04      30   30    2         0.2097027198E-02      0.2963190458E-01
          0                 6           1            32   31     1       0.3169963093E-04      33   31    2         0.1627657359E-02      0.2500621413E-01
          0                 7           1            31   31     2       0.3112348345E-04      30   30    2         0.1349075967E-02      0.2178234250E-01
          0                 8           1            32   31     1       0.2371699050E-04      40   28    2         0.1129483518E-02      0.1956646523E-01
          0                 9           1            31   31     2       0.2112101168E-04      43   33    2         0.1081145534E-02      0.1754786454E-01
          0                10           1            34   31     1       0.1839135887E-04      39   25    2         0.9079969869E-03      0.1592108296E-01
                                                   Max.-Head-Change                         Max.-Flux-Residual
  Residual-Control   Outer-Iter.   Inner-Iter.     Column Row Layer    Maximum-Head-Change  Column Row Layer    Maximum-Flux-Residual          L2-NORM 
          0                11           1            31   32     1       0.1588346403E-04      43   33    2         0.8833193639E-03      0.1438707179E-01
          0                12           1            34   29     1       0.1448977873E-04      19   37    2         0.7536603067E-03      0.1303997083E-01
          0                13           1            31   30     1       0.1275145371E-04      43   33    2         0.7128675556E-03      0.1179811719E-01
          0                14           1            34   29     1       0.1149814402E-04      39   25    2         0.6330094799E-03      0.1069630216E-01
          0                15           1            31   30     1       0.1055668794E-04      43   33    2         0.5734134459E-03      0.9667490009E-02
          0                16           1            34   29     1       0.9198224597E-05      39   25    2         0.5331155475E-03      0.8778378411E-02

    ------------------------------------------------
       NWT REQUIRED           16 OUTER ITERATIONS 
       AND A TOTAL OF         16 INNER ITERATIONS.
    ------------------------------------------------

 OUTPUT CONTROL FOR STRESS PERIOD    1   TIME STEP  253
    SAVE HEAD FOR ALL LAYERS
 SOLVING FOR ZETA FOR LAYER     1 ZONE     2

     708 UPPER PART EQS.       700 LOWER PART EQS.    BAND WIDTH + 1 =   31
 STRESS PERIOD=  1 TIMESTEP=253 LAYER=  1 ZONE=  2 ACTIVE CELLS= 1408 NUMBER OF EQUATIONS=    1408
 SOLVING FOR ZETA FOR LAYER     2 ZONE     2

     377 UPPER PART EQS.       364 LOWER PART EQS.    BAND WIDTH + 1 =   28
 STRESS PERIOD=  1 TIMESTEP=253 LAYER=  2 ZONE=  2 ACTIVE CELLS=  741 NUMBER OF EQUATIONS=     741
 UBUDSV SAVING "      ZETASRF  1" ON UNIT 55 AT TIME STEP253, STRESS PERIOD    1

 HEAD WILL BE SAVED ON UNIT   51 AT END OF TIME STEP  253, STRESS PERIOD    1
 
 SOLVING FOR HEAD 
                                                   Max.-Head-Change                         Max.-Flux-Residual
  Residual-Control   Outer-Iter.   Inner-Iter.     Column Row Layer    Maximum-Head-Change  Column Row Layer    Maximum-Flux-Residual          L2-NORM 
          0                 1           1            50   53     1       0.6615668082E-03      50   53    1         0.4979444501E+00      0.3380234408E+01
          0                 2           1            24   48     2      -0.7429061076E-04      23   17    2        -0.1312938488E-01      0.1724288799E+00
          0                 3           1            34   25     1       0.6709668543E-04      26   23    1         0.3395043001E-02      0.6927731937E-01
          0                 4           1            31   30     1       0.4093382217E-04      32   28    2         0.2493121879E-02      0.4057389628E-01
          0                 5           1            31   31     2       0.4657999825E-04      30   30    2         0.2004563776E-02      0.2748707412E-01
          0                 6           1            32   31     1       0.2458267413E-04      33   31    2         0.1450339720E-02      0.2028534230E-01
          0                 7           1            31   31     2       0.2724951602E-04      30   30    2         0.1165718747E-02      0.1604208983E-01
          0                 8           1            31   31     2       0.1634337724E-04      33   31    2         0.8868864458E-03      0.1361522749E-01
          0                 9           1            31   32     1       0.1699051228E-04      30   30    2         0.7326675865E-03      0.1184772480E-01
          0                10           1            32   32     2       0.1245445226E-04      40   28    2         0.6318871135E-03      0.1071112304E-01
                                                   Max.-Head-Change                         Max.-Flux-Residual
  Residual-Control   Outer-Iter.   Inner-Iter.     Column Row Layer    Maximum-Head-Change  Column Row Layer    Maximum-Flux-Residual          L2-NORM 
          0                11           1            31   32     1       0.1148244449E-04      43   33    2         0.5895833175E-03      0.9617183424E-02
          0                12           1            32   32     2       0.9747845553E-05      22   42    2         0.5142111066E-03      0.8748964995E-02

    ------------------------------------------------
       NWT REQUIRED           12 OUTER ITERATIONS 
       AND A TOTAL OF         12 INNER ITERATIONS.
    ------------------------------------------------

 OUTPUT CONTROL FOR STRESS PERIOD    1   TIME STEP  254
    SAVE HEAD FOR ALL LAYERS
 SOLVING FOR ZETA FOR LAYER     1 ZONE     2

     714 UPPER PART EQS.       714 LOWER PART EQS.    BAND WIDTH + 1 =   29
 STRESS PERIOD=  1 TIMESTEP=254 LAYER=  1 ZONE=  2 ACTIVE CELLS= 1428 NUMBER OF EQUATIONS=    1428
 SOLVING FOR ZETA FOR LAYER     2 ZONE     2

     377 UPPER PART EQS.       368 LOWER PART EQS.    BAND WIDTH + 1 =   28
 STRESS PERIOD=  1 TIMESTEP=254 LAYER=  2 ZONE=  2 ACTIVE CELLS=  745 NUMBER OF EQUATIONS=     745
 UBUDSV SAVING "      ZETASRF  1" ON UNIT 55 AT TIME STEP254, STRESS PERIOD    1

 HEAD WILL BE SAVED ON UNIT   51 AT END OF TIME STEP  254, STRESS PERIOD    1
 
 SOLVING FOR HEAD 
                                                   Max.-Head-Change                         Max.-Flux-Residual
  Residual-Control   Outer-Iter.   Inner-Iter.     Column Row Layer    Maximum-Head-Change  Column Row Layer    Maximum-Flux-Residual          L2-NORM 
          0                 1           1            16   34     2      -0.4914545280E-03      54   27    1        -0.3122105426E+00      0.3060412417E+01
          0                 2           1            32   48     2      -0.7081586415E-04      32   48    2        -0.1210157717E-01      0.1564792999E+00
          0                 3           1            36   25     1       0.6441952458E-04      26   23    1         0.3438270823E-02      0.5993803491E-01
          0                 4           1            31   30     1       0.4278314602E-04      32   28    2         0.2458294504E-02      0.3773755759E-01
          0                 5           1            31   31     2       0.4813329045E-04      30   30    2         0.2055484728E-02      0.2873310944E-01
          0                 6           1            32   31     1       0.2954307295E-04      33   31    2         0.1580975652E-02      0.2380191119E-01
          0                 7           1            31   31     2       0.3131496225E-04      30   30    2         0.1312530369E-02      0.2052439351E-01
          0                 8           1            32   32     2       0.2138825822E-04      40   28    2         0.1127593833E-02      0.1835577275E-01
          0                 9           1            31   32     1       0.2126351952E-04      43   29    2         0.1023746164E-02      0.1639359992E-01
          0                10           1            34   29     1       0.1647206290E-04      40   28    2         0.8848756505E-03      0.1492025627E-01
                                                   Max.-Head-Change                         Max.-Flux-Residual
  Residual-Control   Outer-Iter.   Inner-Iter.     Column Row Layer    Maximum-Head-Change  Column Row Layer    Maximum-Flux-Residual          L2-NORM 
          0                11           1            31   32     1       0.1578364064E-04      43   29    2         0.8321024617E-03      0.1342501849E-01
          0                12           1            34   29     1       0.1306143733E-04      39   25    2         0.7322760304E-03      0.1222176609E-01
          0                13           1            31   30     1       0.1250114333E-04      43   29    2         0.6730554061E-03      0.1101433303E-01
          0                14           1            35   30     1       0.1047611974E-04      39   25    2         0.6141454471E-03      0.1002110887E-01
          0                15           1            31   30     1       0.1020141001E-04      43   29    2         0.5434939753E-03      0.9029650682E-02
          0                16           1            35   30     1       0.8488166031E-05      39   25    2         0.5157511646E-03      0.8217861023E-02

    ------------------------------------------------
       NWT REQUIRED           16 OUTER ITERATIONS 
       AND A TOTAL OF         16 INNER ITERATIONS.
    ------------------------------------------------

 OUTPUT CONTROL FOR STRESS PERIOD    1   TIME STEP  255
    SAVE HEAD FOR ALL LAYERS
 SOLVING FOR ZETA FOR LAYER     1 ZONE     2

     714 UPPER PART EQS.       698 LOWER PART EQS.    BAND WIDTH + 1 =   35
 STRESS PERIOD=  1 TIMESTEP=255 LAYER=  1 ZONE=  2 ACTIVE CELLS= 1412 NUMBER OF EQUATIONS=    1412
 SOLVING FOR ZETA FOR LAYER     2 ZONE     2

     385 UPPER PART EQS.       376 LOWER PART EQS.    BAND WIDTH + 1 =   28
 STRESS PERIOD=  1 TIMESTEP=255 LAYER=  2 ZONE=  2 ACTIVE CELLS=  761 NUMBER OF EQUATIONS=     761
 UBUDSV SAVING "      ZETASRF  1" ON UNIT 55 AT TIME STEP255, STRESS PERIOD    1

 HEAD WILL BE SAVED ON UNIT   51 AT END OF TIME STEP  255, STRESS PERIOD    1
 
 SOLVING FOR HEAD 
                                                   Max.-Head-Change                         Max.-Flux-Residual
  Residual-Control   Outer-Iter.   Inner-Iter.     Column Row Layer    Maximum-Head-Change  Column Row Layer    Maximum-Flux-Residual          L2-NORM 
          0                 1           1            20   43     2      -0.4991699280E-03      15   54    1         0.3653253486E+00      0.3273948566E+01
          0                 2           1            24   48     2      -0.7268888844E-04      37   47    2        -0.1245067595E-01      0.1633911773E+00
          0                 3           1            36   25     1       0.6272789178E-04      26   23    1         0.3329946392E-02      0.6275912870E-01
          0                 4           1            31   30     1       0.4024439079E-04      32   28    2         0.2393439502E-02      0.3729257327E-01
          0                 5           1            31   31     2       0.4456459674E-04      30   30    2         0.1948168833E-02      0.2625902353E-01
          0                 6           1            32   31     1       0.2544999648E-04      33   31    2         0.1439140388E-02      0.2021068834E-01
          0                 7           1            31   31     2       0.2753692371E-04      30   30    2         0.1167467489E-02      0.1658964630E-01
          0                 8           1            30   31     1       0.1704531488E-04      33   31    2         0.9003396092E-03      0.1441458053E-01
          0                 9           1            31   31     2       0.1819711980E-04      30   30    2         0.7563266478E-03      0.1271363868E-01
          0                10           1            32   32     2       0.1269381616E-04      39   25    2         0.6800664726E-03      0.1155295058E-01
                                                   Max.-Head-Change                         Max.-Flux-Residual
  Residual-Control   Outer-Iter.   Inner-Iter.     Column Row Layer    Maximum-Head-Change  Column Row Layer    Maximum-Flux-Residual          L2-NORM 
          0                11           1            31   32     1       0.1273717579E-04      41   23    2         0.5858598302E-03      0.1036091517E-01
          0                12           1            34   29     1       0.9980805219E-05      39   25    2         0.5502403810E-03      0.9458838414E-02

    ------------------------------------------------
       NWT REQUIRED           12 OUTER ITERATIONS 
       AND A TOTAL OF         12 INNER ITERATIONS.
    ------------------------------------------------

 OUTPUT CONTROL FOR STRESS PERIOD    1   TIME STEP  256
    SAVE HEAD FOR ALL LAYERS
 SOLVING FOR ZETA FOR LAYER     1 ZONE     2

     702 UPPER PART EQS.       722 LOWER PART EQS.    BAND WIDTH + 1 =   35
 STRESS PERIOD=  1 TIMESTEP=256 LAYER=  1 ZONE=  2 ACTIVE CELLS= 1424 NUMBER OF EQUATIONS=    1424
 SOLVING FOR ZETA FOR LAYER     2 ZONE     2

     385 UPPER PART EQS.       384 LOWER PART EQS.    BAND WIDTH + 1 =   28
 STRESS PERIOD=  1 TIMESTEP=256 LAYER=  2 ZONE=  2 ACTIVE CELLS=  769 NUMBER OF EQUATIONS=     769
 UBUDSV SAVING "      ZETASRF  1" ON UNIT 55 AT TIME STEP256, STRESS PERIOD    1

 HEAD WILL BE SAVED ON UNIT   51 AT END OF TIME STEP  256, STRESS PERIOD    1
 
 SOLVING FOR HEAD 
                                                   Max.-Head-Change                         Max.-Flux-Residual
  Residual-Control   Outer-Iter.   Inner-Iter.     Column Row Layer    Maximum-Head-Change  Column Row Layer    Maximum-Flux-Residual          L2-NORM 
          0                 1           1            20   43     2      -0.4834225515E-03      11    9    1         0.3859861187E+00      0.3386340252E+01
          0                 2           1            32   48     2      -0.7183863599E-04      32   48    2        -0.1213346992E-01      0.1548329659E+00
          0                 3           1            36   25     1       0.6453787503E-04      26   23    1         0.3408119581E-02      0.5997789339E-01
          0                 4           1            31   30     1       0.4173039154E-04      32   28    2         0.2421886085E-02      0.3780145281E-01
          0                 5           1            31   31     2       0.4907673523E-04      30   30    2         0.2043464175E-02      0.2883612868E-01
          0                 6           1            32   31     1       0.2866209363E-04      33   31    2         0.1568621852E-02      0.2388346786E-01
          0                 7           1            31   31     2       0.3272642431E-04      30   30    2         0.1315431940E-02      0.2063066947E-01
          0                 8           1            30   31     1       0.2052095074E-04      40   28    2         0.1119652204E-02      0.1851040883E-01
          0                 9           1            31   31     2       0.2227712964E-04      19   37    2         0.9608406226E-03      0.1649232745E-01
          0                10           1            34   29     1       0.1590166415E-04      39   25    2         0.8957782685E-03      0.1509184392E-01
                                                   Max.-Head-Change                         Max.-Flux-Residual
  Residual-Control   Outer-Iter.   Inner-Iter.     Column Row Layer    Maximum-Head-Change  Column Row Layer    Maximum-Flux-Residual          L2-NORM 
          0                11           1            31   30     1       0.1631743525E-04      19   37    2         0.7915840645E-03      0.1351010998E-01
          0                12           1            35   30     1       0.1277238095E-04      39   25    2         0.7405759296E-03      0.1236435138E-01
          0                13           1            31   30     1       0.1275850238E-04      19   37    2         0.6417320681E-03      0.1109160326E-01
          0                14           1            35   30     1       0.1038378078E-04      39   25    2         0.6191623007E-03      0.1013181403E-01
          0                15           1            31   30     1       0.1029008343E-04      19   37    2         0.5178362779E-03      0.9099468441E-02
          0                16           1            34   27     1       0.8492191373E-05      39   25    2         0.5184353269E-03      0.8303764653E-02

    ------------------------------------------------
       NWT REQUIRED           16 OUTER ITERATIONS 
       AND A TOTAL OF         16 INNER ITERATIONS.
    ------------------------------------------------

 OUTPUT CONTROL FOR STRESS PERIOD    1   TIME STEP  257
    SAVE HEAD FOR ALL LAYERS
 SOLVING FOR ZETA FOR LAYER     1 ZONE     2

     710 UPPER PART EQS.       694 LOWER PART EQS.    BAND WIDTH + 1 =   35
 STRESS PERIOD=  1 TIMESTEP=257 LAYER=  1 ZONE=  2 ACTIVE CELLS= 1404 NUMBER OF EQUATIONS=    1404
 SOLVING FOR ZETA FOR LAYER     2 ZONE     2

     391 UPPER PART EQS.       384 LOWER PART EQS.    BAND WIDTH + 1 =   28
 STRESS PERIOD=  1 TIMESTEP=257 LAYER=  2 ZONE=  2 ACTIVE CELLS=  775 NUMBER OF EQUATIONS=     775
 UBUDSV SAVING "      ZETASRF  1" ON UNIT 55 AT TIME STEP257, STRESS PERIOD    1

 HEAD WILL BE SAVED ON UNIT   51 AT END OF TIME STEP  257, STRESS PERIOD    1
 
 SOLVING FOR HEAD 
                                                   Max.-Head-Change                         Max.-Flux-Residual
  Residual-Control   Outer-Iter.   Inner-Iter.     Column Row Layer    Maximum-Head-Change  Column Row Layer    Maximum-Flux-Residual          L2-NORM 
          0                 1           1            18   41     2      -0.4800292406E-03      54   28    1        -0.3143658361E+00      0.2896546509E+01
          0                 2           1            24   48     2      -0.7130152941E-04      37   47    2        -0.1226980320E-01      0.1591376945E+00
          0                 3           1            36   25     1       0.6122203285E-04      26   23    1         0.3254006009E-02      0.6270850918E-01
          0                 4           1            31   30     1       0.3913771637E-04      32   28    2         0.2323180427E-02      0.3734528098E-01
          0                 5           1            31   31     2       0.4389193828E-04      30   30    2         0.1918180756E-02      0.2625677206E-01
          0                 6           1            32   31     1       0.2530179563E-04      33   31    2         0.1428531574E-02      0.2017998295E-01
          0                 7           1            31   31     2       0.2714696670E-04      30   30    2         0.1164079276E-02      0.1653007535E-01
          0                 8           1            30   31     1       0.1726515280E-04      33   31    2         0.8985233449E-03      0.1438847986E-01
          0                 9           1            31   31     2       0.1775224449E-04      30   30    2         0.7558579883E-03      0.1268932233E-01
          0                10           1            29   32     1       0.1301122751E-04      20   40    2         0.7150296032E-03      0.1155909886E-01
                                                   Max.-Head-Change                         Max.-Flux-Residual
  Residual-Control   Outer-Iter.   Inner-Iter.     Column Row Layer    Maximum-Head-Change  Column Row Layer    Maximum-Flux-Residual          L2-NORM 
          0                11           1            31   32     1       0.1241154576E-04      20   40    2         0.6509598034E-03      0.1037864049E-01
          0                12           1            29   32     1       0.1021400105E-04      20   40    2         0.6227255476E-03      0.9482170450E-02
          0                13           1            31   30     1       0.9515659062E-05      41   43    2         0.5642401360E-03      0.8554731498E-02

    ------------------------------------------------
       NWT REQUIRED           13 OUTER ITERATIONS 
       AND A TOTAL OF         13 INNER ITERATIONS.
    ------------------------------------------------

 OUTPUT CONTROL FOR STRESS PERIOD    1   TIME STEP  258
    SAVE HEAD FOR ALL LAYERS
 SOLVING FOR ZETA FOR LAYER     1 ZONE     2

     706 UPPER PART EQS.       712 LOWER PART EQS.    BAND WIDTH + 1 =   29
 STRESS PERIOD=  1 TIMESTEP=258 LAYER=  1 ZONE=  2 ACTIVE CELLS= 1418 NUMBER OF EQUATIONS=    1418
 SOLVING FOR ZETA FOR LAYER     2 ZONE     2

     393 UPPER PART EQS.       384 LOWER PART EQS.    BAND WIDTH + 1 =   28
 STRESS PERIOD=  1 TIMESTEP=258 LAYER=  2 ZONE=  2 ACTIVE CELLS=  777 NUMBER OF EQUATIONS=     777
 UBUDSV SAVING "      ZETASRF  1" ON UNIT 55 AT TIME STEP258, STRESS PERIOD    1

 HEAD WILL BE SAVED ON UNIT   51 AT END OF TIME STEP  258, STRESS PERIOD    1
 
 SOLVING FOR HEAD 
                                                   Max.-Head-Change                         Max.-Flux-Residual
  Residual-Control   Outer-Iter.   Inner-Iter.     Column Row Layer    Maximum-Head-Change  Column Row Layer    Maximum-Flux-Residual          L2-NORM 
          0                 1           1            16   35     2      -0.4681751446E-03       8   35    1        -0.3178885235E+00      0.2988587587E+01
          0                 2           1            31   49     2      -0.6706896831E-04      33   47    2        -0.1175152694E-01      0.1521175785E+00
          0                 3           1            36   25     1       0.6108601084E-04      26   23    1         0.3309121019E-02      0.5760166768E-01
          0                 4           1            31   30     1       0.4062342418E-04      32   28    2         0.2319445214E-02      0.3635378473E-01
          0                 5           1            31   31     2       0.4657841920E-04      32   32    2         0.1970550566E-02      0.2786694500E-01
          0                 6           1            32   31     1       0.2850808483E-04      33   31    2         0.1522445723E-02      0.2321592242E-01
          0                 7           1            31   31     2       0.3106127641E-04      30   30    2         0.1276222930E-02      0.2010453598E-01
          0                 8           1            30   31     1       0.2055141977E-04      39   25    2         0.1073919118E-02      0.1804469652E-01
          0                 9           1            31   31     2       0.2126107932E-04      19   37    2         0.9512999234E-03      0.1610806760E-01
          0                10           1            34   29     1       0.1586027119E-04      39   25    2         0.8659324145E-03      0.1470932482E-01
                                                   Max.-Head-Change                         Max.-Flux-Residual
  Residual-Control   Outer-Iter.   Inner-Iter.     Column Row Layer    Maximum-Head-Change  Column Row Layer    Maximum-Flux-Residual          L2-NORM 
          0                11           1            31   30     1       0.1572617358E-04      19   37    2         0.7829768097E-03      0.1320105866E-01
          0                12           1            35   30     1       0.1265983556E-04      39   25    2         0.7182234046E-03      0.1205579037E-01
          0                13           1            31   30     1       0.1240047702E-04      19   37    2         0.6339343513E-03      0.1083775830E-01
          0                14           1            35   30     1       0.1023499690E-04      39   25    2         0.6017829345E-03      0.9883967201E-02
          0                15           1            31   30     1       0.1005956657E-04      19   37    2         0.5110206425E-03      0.8890606193E-02
          0                16           1            34   27     1       0.8361751192E-05      39   25    2         0.5045744635E-03      0.8103635884E-02

    ------------------------------------------------
       NWT REQUIRED           16 OUTER ITERATIONS 
       AND A TOTAL OF         16 INNER ITERATIONS.
    ------------------------------------------------

 OUTPUT CONTROL FOR STRESS PERIOD    1   TIME STEP  259
    SAVE HEAD FOR ALL LAYERS
 SOLVING FOR ZETA FOR LAYER     1 ZONE     2

     702 UPPER PART EQS.       696 LOWER PART EQS.    BAND WIDTH + 1 =   33
 STRESS PERIOD=  1 TIMESTEP=259 LAYER=  1 ZONE=  2 ACTIVE CELLS= 1398 NUMBER OF EQUATIONS=    1398
 SOLVING FOR ZETA FOR LAYER     2 ZONE     2

     393 UPPER PART EQS.       388 LOWER PART EQS.    BAND WIDTH + 1 =   26
 STRESS PERIOD=  1 TIMESTEP=259 LAYER=  2 ZONE=  2 ACTIVE CELLS=  781 NUMBER OF EQUATIONS=     781
 UBUDSV SAVING "      ZETASRF  1" ON UNIT 55 AT TIME STEP259, STRESS PERIOD    1

 HEAD WILL BE SAVED ON UNIT   51 AT END OF TIME STEP  259, STRESS PERIOD    1
 
 SOLVING FOR HEAD 
                                                   Max.-Head-Change                         Max.-Flux-Residual
  Residual-Control   Outer-Iter.   Inner-Iter.     Column Row Layer    Maximum-Head-Change  Column Row Layer    Maximum-Flux-Residual          L2-NORM 
          0                 1           1            18   41     2      -0.4710265383E-03      11    9    1         0.3825621120E+00      0.3254691292E+01
          0                 2           1            24   48     2      -0.7265640608E-04      33   47    2        -0.1290943765E-01      0.1559727057E+00
          0                 3           1            36   25     1       0.6068916515E-04      26   23    1         0.3136843719E-02      0.6213717320E-01
          0                 4           1            31   30     1       0.3810672548E-04      32   28    2         0.2274771153E-02      0.3680298130E-01
          0                 5           1            31   31     2       0.4292375862E-04      30   30    2         0.1867271817E-02      0.2560401293E-01
          0                 6           1            32   31     1       0.2431251621E-04      33   31    2         0.1382917816E-02      0.1949115693E-01
          0                 7           1            31   31     2       0.2587535227E-04      30   30    2         0.1122934985E-02      0.1586221630E-01
          0                 8           1            31   31     2       0.1679023919E-04      33   31    2         0.8682842908E-03      0.1375602800E-01
          0                 9           1            31   31     2       0.1655253520E-04      30   30    2         0.7243929097E-03      0.1210288845E-01
          0                10           1            32   32     2       0.1277388445E-04      22   42    2         0.6884961870E-03      0.1100993963E-01
                                                   Max.-Head-Change                         Max.-Flux-Residual
  Residual-Control   Outer-Iter.   Inner-Iter.     Column Row Layer    Maximum-Head-Change  Column Row Layer    Maximum-Flux-Residual          L2-NORM 
          0                11           1            31   32     1       0.1154427156E-04      20   40    2         0.6267468657E-03      0.9900579627E-02
          0                12           1            29   32     1       0.9950914842E-05      22   42    2         0.6058588473E-03      0.9028982508E-02

    ------------------------------------------------
       NWT REQUIRED           12 OUTER ITERATIONS 
       AND A TOTAL OF         12 INNER ITERATIONS.
    ------------------------------------------------

 OUTPUT CONTROL FOR STRESS PERIOD    1   TIME STEP  260
    SAVE HEAD FOR ALL LAYERS
 SOLVING FOR ZETA FOR LAYER     1 ZONE     2

     706 UPPER PART EQS.       708 LOWER PART EQS.    BAND WIDTH + 1 =   25
 STRESS PERIOD=  1 TIMESTEP=260 LAYER=  1 ZONE=  2 ACTIVE CELLS= 1414 NUMBER OF EQUATIONS=    1414
 SOLVING FOR ZETA FOR LAYER     2 ZONE     2

     401 UPPER PART EQS.       400 LOWER PART EQS.    BAND WIDTH + 1 =   26
 STRESS PERIOD=  1 TIMESTEP=260 LAYER=  2 ZONE=  2 ACTIVE CELLS=  801 NUMBER OF EQUATIONS=     801
 UBUDSV SAVING "      ZETASRF  1" ON UNIT 55 AT TIME STEP260, STRESS PERIOD    1

 HEAD WILL BE SAVED ON UNIT   51 AT END OF TIME STEP  260, STRESS PERIOD    1
 
 SOLVING FOR HEAD 
                                                   Max.-Head-Change                         Max.-Flux-Residual
  Residual-Control   Outer-Iter.   Inner-Iter.     Column Row Layer    Maximum-Head-Change  Column Row Layer    Maximum-Flux-Residual          L2-NORM 
          0                 1           1            16   36     2      -0.4520162619E-03      54   27    1        -0.3206620504E+00      0.2976936054E+01
          0                 2           1            31   49     2      -0.6397334328E-04      23   17    2        -0.1359902680E-01      0.1470999087E+00
          0                 3           1            36   25     1       0.5976238364E-04      26   23    1         0.3140885843E-02      0.5571401659E-01
          0                 4           1            31   30     1       0.3892280225E-04      32   28    2         0.2237269214E-02      0.3514441108E-01
          0                 5           1            31   31     2       0.4473010278E-04      32   32    2         0.1899990312E-02      0.2674421464E-01
          0                 6           1            32   31     1       0.2735676487E-04      33   31    2         0.1457832844E-02      0.2221065718E-01
          0                 7           1            31   31     2       0.2912517282E-04      30   30    2         0.1223896899E-02      0.1915514785E-01
          0                 8           1            30   31     1       0.2006543364E-04      39   25    2         0.1025396541E-02      0.1715636166E-01
          0                 9           1            31   32     1       0.1958395797E-04      43   29    2         0.9230224899E-03      0.1532084245E-01
          0                10           1            34   29     1       0.1563509285E-04      39   25    2         0.8334793298E-03      0.1395306915E-01
                                                   Max.-Head-Change                         Max.-Flux-Residual
  Residual-Control   Outer-Iter.   Inner-Iter.     Column Row Layer    Maximum-Head-Change  Column Row Layer    Maximum-Flux-Residual          L2-NORM 
          0                11           1            31   30     1       0.1442763654E-04      43   29    2         0.7569731168E-03      0.1256419021E-01
          0                12           1            34   29     1       0.1247433245E-04      39   25    2         0.6969966072E-03      0.1143439624E-01
          0                13           1            31   30     1       0.1142556164E-04      43   29    2         0.6161852693E-03      0.1032142529E-01
          0                14           1            35   30     1       0.1002142163E-04      39   25    2         0.5887270464E-03      0.9381123909E-02
          0                15           1            31   30     1       0.9336572887E-05      43   29    2         0.4996568001E-03      0.8470049812E-02

    ------------------------------------------------
       NWT REQUIRED           15 OUTER ITERATIONS 
       AND A TOTAL OF         15 INNER ITERATIONS.
    ------------------------------------------------

 OUTPUT CONTROL FOR STRESS PERIOD    1   TIME STEP  261
    SAVE HEAD FOR ALL LAYERS
 SOLVING FOR ZETA FOR LAYER     1 ZONE     2

     706 UPPER PART EQS.       690 LOWER PART EQS.    BAND WIDTH + 1 =   39
 STRESS PERIOD=  1 TIMESTEP=261 LAYER=  1 ZONE=  2 ACTIVE CELLS= 1396 NUMBER OF EQUATIONS=    1396
 SOLVING FOR ZETA FOR LAYER     2 ZONE     2

     401 UPPER PART EQS.       408 LOWER PART EQS.    BAND WIDTH + 1 =   28
 STRESS PERIOD=  1 TIMESTEP=261 LAYER=  2 ZONE=  2 ACTIVE CELLS=  809 NUMBER OF EQUATIONS=     809
 UBUDSV SAVING "      ZETASRF  1" ON UNIT 55 AT TIME STEP261, STRESS PERIOD    1

 HEAD WILL BE SAVED ON UNIT   51 AT END OF TIME STEP  261, STRESS PERIOD    1
 
 SOLVING FOR HEAD 
                                                   Max.-Head-Change                         Max.-Flux-Residual
  Residual-Control   Outer-Iter.   Inner-Iter.     Column Row Layer    Maximum-Head-Change  Column Row Layer    Maximum-Flux-Residual          L2-NORM 
          0                 1           1            16   37     2      -0.4388120875E-03      54   28    1        -0.3201635889E+00      0.2770497679E+01
          0                 2           1            24   48     2      -0.6994933453E-04      23   17    2        -0.1283820828E-01      0.1523074301E+00
          0                 3           1            36   25     1       0.5825416267E-04      26   23    1         0.3035288319E-02      0.5951149081E-01
          0                 4           1            31   30     1       0.3826003088E-04      32   28    2         0.2223847433E-02      0.3574105036E-01
          0                 5           1            31   31     2       0.4236401161E-04      32   32    2         0.1862839423E-02      0.2558206358E-01
          0                 6           1            32   31     1       0.2536853907E-04      33   31    2         0.1398756044E-02      0.2002192311E-01
          0                 7           1            31   31     2       0.2654391718E-04      30   30    2         0.1145123543E-02      0.1664896308E-01
          0                 8           1            31   31     2       0.1779374682E-04      33   31    2         0.8933476155E-03      0.1453999847E-01
          0                 9           1            31   31     2       0.1739902278E-04      30   30    2         0.7527028365E-03      0.1291263202E-01
          0                10           1            29   32     1       0.1350920102E-04      39   25    2         0.6976449200E-03      0.1168867268E-01
                                                   Max.-Head-Change                         Max.-Flux-Residual
  Residual-Control   Outer-Iter.   Inner-Iter.     Column Row Layer    Maximum-Head-Change  Column Row Layer    Maximum-Flux-Residual          L2-NORM 
          0                11           1            31   30     1       0.1232184662E-04      40   20    2         0.6202962991E-03      0.1055448671E-01
          0                12           1            29   32     1       0.1062053333E-04      39   25    2         0.5775673874E-03      0.9572721383E-02
          0                13           1            31   30     1       0.9499841464E-05      40   20    2         0.5247207581E-03      0.8681663830E-02

    ------------------------------------------------
       NWT REQUIRED           13 OUTER ITERATIONS 
       AND A TOTAL OF         13 INNER ITERATIONS.
    ------------------------------------------------

 OUTPUT CONTROL FOR STRESS PERIOD    1   TIME STEP  262
    SAVE HEAD FOR ALL LAYERS
 SOLVING FOR ZETA FOR LAYER     1 ZONE     2

     690 UPPER PART EQS.       706 LOWER PART EQS.    BAND WIDTH + 1 =   35
 STRESS PERIOD=  1 TIMESTEP=262 LAYER=  1 ZONE=  2 ACTIVE CELLS= 1396 NUMBER OF EQUATIONS=    1396
 SOLVING FOR ZETA FOR LAYER     2 ZONE     2

     405 UPPER PART EQS.       408 LOWER PART EQS.    BAND WIDTH + 1 =   28
 STRESS PERIOD=  1 TIMESTEP=262 LAYER=  2 ZONE=  2 ACTIVE CELLS=  813 NUMBER OF EQUATIONS=     813
 UBUDSV SAVING "      ZETASRF  1" ON UNIT 55 AT TIME STEP262, STRESS PERIOD    1

 HEAD WILL BE SAVED ON UNIT   51 AT END OF TIME STEP  262, STRESS PERIOD    1
 
 SOLVING FOR HEAD 
                                                   Max.-Head-Change                         Max.-Flux-Residual
  Residual-Control   Outer-Iter.   Inner-Iter.     Column Row Layer    Maximum-Head-Change  Column Row Layer    Maximum-Flux-Residual          L2-NORM 
          0                 1           1            16   37     2      -0.4398521875E-03      11   53    1         0.3778915903E+00      0.3129103171E+01
          0                 2           1            31   49     2      -0.6784749098E-04      24   16    2        -0.1128494080E-01      0.1461134946E+00
          0                 3           1            36   25     1       0.6004426844E-04      26   23    1         0.3181621012E-02      0.5779118098E-01
          0                 4           1            31   30     1       0.3899068915E-04      32   28    2         0.2242515600E-02      0.3615442057E-01
          0                 5           1            31   31     2       0.4529472312E-04      32   32    2         0.1916533889E-02      0.2731767813E-01
          0                 6           1            32   31     1       0.2755676780E-04      33   31    2         0.1479478832E-02      0.2249820762E-01
          0                 7           1            31   31     2       0.3017869928E-04      30   30    2         0.1242864326E-02      0.1936622144E-01
          0                 8           1            30   31     1       0.1979603636E-04      39   25    2         0.1022836677E-02      0.1727842630E-01
          0                 9           1            31   31     2       0.2067753916E-04      19   37    2         0.8985532734E-03      0.1543319900E-01
          0                10           1            29   32     1       0.1516000176E-04      39   25    2         0.8351492020E-03      0.1405713563E-01
                                                   Max.-Head-Change                         Max.-Flux-Residual
  Residual-Control   Outer-Iter.   Inner-Iter.     Column Row Layer    Maximum-Head-Change  Column Row Layer    Maximum-Flux-Residual          L2-NORM 
          0                11           1            31   30     1       0.1519957637E-04      19   37    2         0.7459298434E-03      0.1263464311E-01
          0                12           1            35   30     1       0.1205889179E-04      39   25    2         0.6985637102E-03      0.1152076060E-01
          0                13           1            31   30     1       0.1189660751E-04      19   37    2         0.6074035815E-03      0.1037224692E-01
          0                14           1            34   27     1       0.9784472667E-05      39   25    2         0.5882397586E-03      0.9446101917E-02

    ------------------------------------------------
       NWT REQUIRED           14 OUTER ITERATIONS 
       AND A TOTAL OF         14 INNER ITERATIONS.
    ------------------------------------------------

 OUTPUT CONTROL FOR STRESS PERIOD    1   TIME STEP  263
    SAVE HEAD FOR ALL LAYERS
 SOLVING FOR ZETA FOR LAYER     1 ZONE     2

     706 UPPER PART EQS.       690 LOWER PART EQS.    BAND WIDTH + 1 =   39
 STRESS PERIOD=  1 TIMESTEP=263 LAYER=  1 ZONE=  2 ACTIVE CELLS= 1396 NUMBER OF EQUATIONS=    1396
 SOLVING FOR ZETA FOR LAYER     2 ZONE     2

     409 UPPER PART EQS.       408 LOWER PART EQS.    BAND WIDTH + 1 =   28
 STRESS PERIOD=  1 TIMESTEP=263 LAYER=  2 ZONE=  2 ACTIVE CELLS=  817 NUMBER OF EQUATIONS=     817
 UBUDSV SAVING "      ZETASRF  1" ON UNIT 55 AT TIME STEP263, STRESS PERIOD    1

 HEAD WILL BE SAVED ON UNIT   51 AT END OF TIME STEP  263, STRESS PERIOD    1
 
 SOLVING FOR HEAD 
                                                   Max.-Head-Change                         Max.-Flux-Residual
  Residual-Control   Outer-Iter.   Inner-Iter.     Column Row Layer    Maximum-Head-Change  Column Row Layer    Maximum-Flux-Residual          L2-NORM 
          0                 1           1            16   37     2      -0.4350106150E-03      54   28    1        -0.3230893967E+00      0.2671558176E+01
          0                 2           1            40   48     2      -0.6717827831E-04      38   46    2        -0.1117114250E-01      0.1493044686E+00
          0                 3           1            36   25     1       0.5820992677E-04      26   23    1         0.3010181938E-02      0.5948958857E-01
          0                 4           1            31   30     1       0.3803783275E-04      32   28    2         0.2217303976E-02      0.3585528376E-01
          0                 5           1            31   31     2       0.4235173107E-04      32   32    2         0.1859239988E-02      0.2566991249E-01
          0                 6           1            32   31     1       0.2540873928E-04      33   31    2         0.1401555958E-02      0.2011663113E-01
          0                 7           1            31   31     2       0.2650288544E-04      30   30    2         0.1148708893E-02      0.1674200032E-01
          0                 8           1            31   31     2       0.1798267061E-04      33   31    2         0.8983940772E-03      0.1465669723E-01
          0                 9           1            31   31     2       0.1729258822E-04      30   30    2         0.7567208446E-03      0.1301818750E-01
          0                10           1            29   32     1       0.1374398469E-04      39   25    2         0.6887779118E-03      0.1180172799E-01
                                                   Max.-Head-Change                         Max.-Flux-Residual
  Residual-Control   Outer-Iter.   Inner-Iter.     Column Row Layer    Maximum-Head-Change  Column Row Layer    Maximum-Flux-Residual          L2-NORM 
          0                11           1            31   30     1       0.1226864457E-04      40   20    2         0.6342029965E-03      0.1066009265E-01
          0                12           1            29   32     1       0.1079539994E-04      39   25    2         0.5698252992E-03      0.9671646679E-02
          0                13           1            31   30     1       0.9496892218E-05      40   20    2         0.5359362779E-03      0.8774776940E-02

    ------------------------------------------------
       NWT REQUIRED           13 OUTER ITERATIONS 
       AND A TOTAL OF         13 INNER ITERATIONS.
    ------------------------------------------------

 OUTPUT CONTROL FOR STRESS PERIOD    1   TIME STEP  264
    SAVE HEAD FOR ALL LAYERS
 SOLVING FOR ZETA FOR LAYER     1 ZONE     2

     698 UPPER PART EQS.       706 LOWER PART EQS.    BAND WIDTH + 1 =   31
 STRESS PERIOD=  1 TIMESTEP=264 LAYER=  1 ZONE=  2 ACTIVE CELLS= 1404 NUMBER OF EQUATIONS=    1404
 SOLVING FOR ZETA FOR LAYER     2 ZONE     2

     409 UPPER PART EQS.       408 LOWER PART EQS.    BAND WIDTH + 1 =   28
 STRESS PERIOD=  1 TIMESTEP=264 LAYER=  2 ZONE=  2 ACTIVE CELLS=  817 NUMBER OF EQUATIONS=     817
 UBUDSV SAVING "      ZETASRF  1" ON UNIT 55 AT TIME STEP264, STRESS PERIOD    1

 HEAD WILL BE SAVED ON UNIT   51 AT END OF TIME STEP  264, STRESS PERIOD    1
 
 SOLVING FOR HEAD 
                                                   Max.-Head-Change                         Max.-Flux-Residual
  Residual-Control   Outer-Iter.   Inner-Iter.     Column Row Layer    Maximum-Head-Change  Column Row Layer    Maximum-Flux-Residual          L2-NORM 
          0                 1           1            16   37     2      -0.4326699193E-03       8   35    1        -0.3262034534E+00      0.2908017473E+01
          0                 2           1            31   49     2      -0.6442637626E-04      24   16    2        -0.1092038478E-01      0.1422775538E+00
          0                 3           1            36   25     1       0.5687541371E-04      26   23    1         0.3039338868E-02      0.5411130146E-01
          0                 4           1            32   29     1       0.3772305037E-04      30   27    1         0.2135470243E-02      0.3429527649E-01
          0                 5           1            31   31     2       0.4328508200E-04      32   32    2         0.1841661848E-02      0.2651691774E-01
          0                 6           1            32   31     1       0.2753628723E-04      33   31    2         0.1434495465E-02      0.2225577586E-01
          0                 7           1            31   31     2       0.2851400384E-04      30   30    2         0.1207576806E-02      0.1936424476E-01
          0                 8           1            30   31     1       0.2058864889E-04      39   25    2         0.9925572092E-03      0.1740309617E-01
          0                 9           1            31   31     2       0.1924572523E-04      19   37    2         0.9249168211E-03      0.1559965365E-01
          0                10           1            29   32     1       0.1614431314E-04      39   25    2         0.8114036910E-03      0.1419525560E-01
                                                   Max.-Head-Change                         Max.-Flux-Residual
  Residual-Control   Outer-Iter.   Inner-Iter.     Column Row Layer    Maximum-Head-Change  Column Row Layer    Maximum-Flux-Residual          L2-NORM 
          0                11           1            31   30     1       0.1430767823E-04      19   37    2         0.7697150633E-03      0.1281611589E-01
          0                12           1            29   32     1       0.1281375988E-04      39   25    2         0.6804305652E-03      0.1163822156E-01
          0                13           1            31   30     1       0.1138267475E-04      19   37    2         0.6267469104E-03      0.1052821894E-01
          0                14           1            34   27     1       0.1026392162E-04      39   25    2         0.5754021038E-03      0.9547300536E-02
          0                15           1            31   30     1       0.9309692584E-05      19   37    2         0.5066197124E-03      0.8635952823E-02

    ------------------------------------------------
       NWT REQUIRED           15 OUTER ITERATIONS 
       AND A TOTAL OF         15 INNER ITERATIONS.
    ------------------------------------------------

 OUTPUT CONTROL FOR STRESS PERIOD    1   TIME STEP  265
    SAVE HEAD FOR ALL LAYERS
 SOLVING FOR ZETA FOR LAYER     1 ZONE     2

     692 UPPER PART EQS.       682 LOWER PART EQS.    BAND WIDTH + 1 =   37
 STRESS PERIOD=  1 TIMESTEP=265 LAYER=  1 ZONE=  2 ACTIVE CELLS= 1374 NUMBER OF EQUATIONS=    1374
 SOLVING FOR ZETA FOR LAYER     2 ZONE     2

     409 UPPER PART EQS.       408 LOWER PART EQS.    BAND WIDTH + 1 =   28
 STRESS PERIOD=  1 TIMESTEP=265 LAYER=  2 ZONE=  2 ACTIVE CELLS=  817 NUMBER OF EQUATIONS=     817
 UBUDSV SAVING "      ZETASRF  1" ON UNIT 55 AT TIME STEP265, STRESS PERIOD    1

 HEAD WILL BE SAVED ON UNIT   51 AT END OF TIME STEP  265, STRESS PERIOD    1
 
 SOLVING FOR HEAD 
                                                   Max.-Head-Change                         Max.-Flux-Residual
  Residual-Control   Outer-Iter.   Inner-Iter.     Column Row Layer    Maximum-Head-Change  Column Row Layer    Maximum-Flux-Residual          L2-NORM 
          0                 1           1            16   37     2      -0.4338191007E-03      11   53    1         0.3788543681E+00      0.2990574134E+01
          0                 2           1            40   48     2      -0.6826387032E-04      24   16    2        -0.1099399483E-01      0.1512840382E+00
          0                 3           1            36   25     1       0.5777199364E-04      26   23    1         0.3020363342E-02      0.6144178348E-01
          0                 4           1            31   30     1       0.3743883503E-04      32   28    2         0.2189006348E-02      0.3661822417E-01
          0                 5           1            31   31     2       0.4229614975E-04      32   32    2         0.1848760362E-02      0.2579405455E-01
          0                 6           1            31   31     2       0.2476831848E-04      33   31    2         0.1383566570E-02      0.1986801534E-01
          0                 7           1            31   31     2       0.2634574030E-04      30   30    2         0.1137692418E-02      0.1635750831E-01
          0                 8           1            30   31     1       0.1731226024E-04      33   31    2         0.8774166578E-03      0.1426443039E-01
          0                 9           1            31   31     2       0.1714333517E-04      30   30    2         0.7419622781E-03      0.1261896385E-01
          0                10           1            29   32     1       0.1320971693E-04      20   40    2         0.6966722042E-03      0.1148562798E-01
                                                   Max.-Head-Change                         Max.-Flux-Residual
  Residual-Control   Outer-Iter.   Inner-Iter.     Column Row Layer    Maximum-Head-Change  Column Row Layer    Maximum-Flux-Residual          L2-NORM 
          0                11           1            31   30     1       0.1200749696E-04      20   40    2         0.6230773856E-03      0.1035062877E-01
          0                12           1            29   32     1       0.1037555395E-04      20   40    2         0.6054352946E-03      0.9425564709E-02
          0                13           1            31   30     1       0.9234050057E-05      20   40    2         0.5232103882E-03      0.8539999890E-02

    ------------------------------------------------
       NWT REQUIRED           13 OUTER ITERATIONS 
       AND A TOTAL OF         13 INNER ITERATIONS.
    ------------------------------------------------

 OUTPUT CONTROL FOR STRESS PERIOD    1   TIME STEP  266
    SAVE HEAD FOR ALL LAYERS
 SOLVING FOR ZETA FOR LAYER     1 ZONE     2

     692 UPPER PART EQS.       706 LOWER PART EQS.    BAND WIDTH + 1 =   37
 STRESS PERIOD=  1 TIMESTEP=266 LAYER=  1 ZONE=  2 ACTIVE CELLS= 1398 NUMBER OF EQUATIONS=    1398
 SOLVING FOR ZETA FOR LAYER     2 ZONE     2

     409 UPPER PART EQS.       410 LOWER PART EQS.    BAND WIDTH + 1 =   28
 STRESS PERIOD=  1 TIMESTEP=266 LAYER=  2 ZONE=  2 ACTIVE CELLS=  819 NUMBER OF EQUATIONS=     819
 UBUDSV SAVING "      ZETASRF  1" ON UNIT 55 AT TIME STEP266, STRESS PERIOD    1

 HEAD WILL BE SAVED ON UNIT   51 AT END OF TIME STEP  266, STRESS PERIOD    1
 
 SOLVING FOR HEAD 
                                                   Max.-Head-Change                         Max.-Flux-Residual
  Residual-Control   Outer-Iter.   Inner-Iter.     Column Row Layer    Maximum-Head-Change  Column Row Layer    Maximum-Flux-Residual          L2-NORM 
          0                 1           1            17   40     2      -0.4259931893E-03       8   35    1        -0.3289895374E+00      0.3012708080E+01
          0                 2           1            31   49     2      -0.6378244253E-04      22   18    2        -0.1114044286E-01      0.1413811761E+00
          0                 3           1            36   25     1       0.5649860420E-04      26   23    1         0.2996786064E-02      0.5382022499E-01
          0                 4           1            32   29     1       0.3652606008E-04      30   27    1         0.2091838047E-02      0.3381133002E-01
          0                 5           1            31   31     2       0.4340603255E-04      32   32    2         0.1805883218E-02      0.2594964269E-01
          0                 6           1            32   31     1       0.2601746434E-04      33   31    2         0.1400436606E-02      0.2162009952E-01
          0                 7           1            31   31     2       0.2924531507E-04      30   30    2         0.1179885827E-02      0.1875693316E-01
          0                 8           1            30   31     1       0.1890552474E-04      40   28    2         0.9760674735E-03      0.1683748619E-01
          0                 9           1            31   31     2       0.1987440493E-04      20   40    2         0.8395617688E-03      0.1504493650E-01
          0                10           1            29   32     1       0.1474582852E-04      39   25    2         0.7811523303E-03      0.1373361725E-01
                                                   Max.-Head-Change                         Max.-Flux-Residual
  Residual-Control   Outer-Iter.   Inner-Iter.     Column Row Layer    Maximum-Head-Change  Column Row Layer    Maximum-Flux-Residual          L2-NORM 
          0                11           1            31   30     1       0.1458254846E-04      20   40    2         0.7041416721E-03      0.1233922537E-01
          0                12           1            29   32     1       0.1183934813E-04      39   25    2         0.6541622936E-03      0.1125302294E-01
          0                13           1            31   30     1       0.1139801679E-04      20   40    2         0.5732426209E-03      0.1013702443E-01
          0                14           1            34   27     1       0.9621593533E-05      39   25    2         0.5510393798E-03      0.9223378012E-02

    ------------------------------------------------
       NWT REQUIRED           14 OUTER ITERATIONS 
       AND A TOTAL OF         14 INNER ITERATIONS.
    ------------------------------------------------

 OUTPUT CONTROL FOR STRESS PERIOD    1   TIME STEP  267
    SAVE HEAD FOR ALL LAYERS
 SOLVING FOR ZETA FOR LAYER     1 ZONE     2

     696 UPPER PART EQS.       682 LOWER PART EQS.    BAND WIDTH + 1 =   37
 STRESS PERIOD=  1 TIMESTEP=267 LAYER=  1 ZONE=  2 ACTIVE CELLS= 1378 NUMBER OF EQUATIONS=    1378
 SOLVING FOR ZETA FOR LAYER     2 ZONE     2

     409 UPPER PART EQS.       416 LOWER PART EQS.    BAND WIDTH + 1 =   28
 STRESS PERIOD=  1 TIMESTEP=267 LAYER=  2 ZONE=  2 ACTIVE CELLS=  825 NUMBER OF EQUATIONS=     825
 UBUDSV SAVING "      ZETASRF  1" ON UNIT 55 AT TIME STEP267, STRESS PERIOD    1

 HEAD WILL BE SAVED ON UNIT   51 AT END OF TIME STEP  267, STRESS PERIOD    1
 
 SOLVING FOR HEAD 
                                                   Max.-Head-Change                         Max.-Flux-Residual
  Residual-Control   Outer-Iter.   Inner-Iter.     Column Row Layer    Maximum-Head-Change  Column Row Layer    Maximum-Flux-Residual          L2-NORM 
          0                 1           1            19   43     2      -0.4181594192E-03      54   28    1        -0.3288511556E+00      0.2965970273E+01
          0                 2           1            40   48     2      -0.6578814689E-04      38   46    2        -0.1246244049E-01      0.1478386523E+00
          0                 3           1            36   25     1       0.5518361051E-04      26   23    1         0.2888505646E-02      0.5755517248E-01
          0                 4           1            31   30     1       0.3640002684E-04      32   28    2         0.2103521450E-02      0.3459288893E-01
          0                 5           1            31   31     2       0.4056542387E-04      32   32    2         0.1789303750E-02      0.2485404441E-01
          0                 6           1            31   31     2       0.2481043073E-04      33   31    2         0.1353627270E-02      0.1952940761E-01
          0                 7           1            31   31     2       0.2567570798E-04      30   30    2         0.1113634942E-02      0.1628642452E-01
          0                 8           1            30   31     1       0.1745847883E-04      39   25    2         0.8728584727E-03      0.1425915595E-01
          0                 9           1            31   31     2       0.1704855567E-04      30   30    2         0.7365967023E-03      0.1265777005E-01
          0                10           1            29   32     1       0.1318661942E-04      39   25    2         0.6948463417E-03      0.1147145581E-01
                                                   Max.-Head-Change                         Max.-Flux-Residual
  Residual-Control   Outer-Iter.   Inner-Iter.     Column Row Layer    Maximum-Head-Change  Column Row Layer    Maximum-Flux-Residual          L2-NORM 
          0                11           1            31   30     1       0.1224606934E-04      40   20    2         0.6265949253E-03      0.1033923185E-01
          0                12           1            29   32     1       0.1031906812E-04      39   25    2         0.5764816583E-03      0.9395666859E-02
          0                13           1            31   30     1       0.9488395708E-05      40   20    2         0.5288569361E-03      0.8497893069E-02

    ------------------------------------------------
       NWT REQUIRED           13 OUTER ITERATIONS 
       AND A TOTAL OF         13 INNER ITERATIONS.
    ------------------------------------------------

 OUTPUT CONTROL FOR STRESS PERIOD    1   TIME STEP  268
    SAVE HEAD FOR ALL LAYERS
 SOLVING FOR ZETA FOR LAYER     1 ZONE     2

     676 UPPER PART EQS.       706 LOWER PART EQS.    BAND WIDTH + 1 =   49
 STRESS PERIOD=  1 TIMESTEP=268 LAYER=  1 ZONE=  2 ACTIVE CELLS= 1382 NUMBER OF EQUATIONS=    1382
 SOLVING FOR ZETA FOR LAYER     2 ZONE     2

     409 UPPER PART EQS.       424 LOWER PART EQS.    BAND WIDTH + 1 =   30
 STRESS PERIOD=  1 TIMESTEP=268 LAYER=  2 ZONE=  2 ACTIVE CELLS=  833 NUMBER OF EQUATIONS=     833
 UBUDSV SAVING "      ZETASRF  1" ON UNIT 55 AT TIME STEP268, STRESS PERIOD    1

 HEAD WILL BE SAVED ON UNIT   51 AT END OF TIME STEP  268, STRESS PERIOD    1
 
 SOLVING FOR HEAD 
                                                   Max.-Head-Change                         Max.-Flux-Residual
  Residual-Control   Outer-Iter.   Inner-Iter.     Column Row Layer    Maximum-Head-Change  Column Row Layer    Maximum-Flux-Residual          L2-NORM 
          0                 1           1            19   43     2      -0.4152794219E-03      11   53    1         0.3763921155E+00      0.3111918391E+01
          0                 2           1            31   49     2      -0.6522175185E-04      24   16    2        -0.1092111972E-01      0.1421051150E+00
          0                 3           1            36   25     1       0.5700844730E-04      22   42    2         0.3065201435E-02      0.5594723521E-01
          0                 4           1            32   29     1       0.3700692520E-04      30   27    1         0.2118800760E-02      0.3500468885E-01
          0                 5           1            31   31     2       0.4336054811E-04      32   32    2         0.1833843617E-02      0.2655947068E-01
          0                 6           1            31   31     2       0.2679105936E-04      33   31    2         0.1427182866E-02      0.2197416693E-01
          0                 7           1            31   31     2       0.2901032706E-04      30   30    2         0.1201402894E-02      0.1899043071E-01
          0                 8           1            30   31     1       0.1963244858E-04      40   28    2         0.9649361646E-03      0.1697031272E-01
          0                 9           1            31   31     2       0.1959039215E-04      19   37    2         0.8858322807E-03      0.1520533286E-01
          0                10           1            29   32     1       0.1536778711E-04      39   25    2         0.7772131976E-03      0.1382201041E-01
                                                   Max.-Head-Change                         Max.-Flux-Residual
  Residual-Control   Outer-Iter.   Inner-Iter.     Column Row Layer    Maximum-Head-Change  Column Row Layer    Maximum-Flux-Residual          L2-NORM 
          0                11           1            31   30     1       0.1426742971E-04      19   37    2         0.7419547086E-03      0.1248157254E-01
          0                12           1            29   32     1       0.1236089035E-04      39   25    2         0.6480908685E-03      0.1132525298E-01
          0                13           1            31   30     1       0.1111293637E-04      19   37    2         0.6078978781E-03      0.1026007884E-01
          0                14           1            29   32     1       0.1002690407E-04      39   25    2         0.5447276275E-03      0.9283404713E-02
          0                15           1            32   31     1       0.8953125318E-05      19   37    2         0.4932711852E-03      0.8420617918E-02

    ------------------------------------------------
       NWT REQUIRED           15 OUTER ITERATIONS 
       AND A TOTAL OF         15 INNER ITERATIONS.
    ------------------------------------------------

 OUTPUT CONTROL FOR STRESS PERIOD    1   TIME STEP  269
    SAVE HEAD FOR ALL LAYERS
 SOLVING FOR ZETA FOR LAYER     1 ZONE     2

     696 UPPER PART EQS.       682 LOWER PART EQS.    BAND WIDTH + 1 =   37
 STRESS PERIOD=  1 TIMESTEP=269 LAYER=  1 ZONE=  2 ACTIVE CELLS= 1378 NUMBER OF EQUATIONS=    1378
 SOLVING FOR ZETA FOR LAYER     2 ZONE     2

     409 UPPER PART EQS.       424 LOWER PART EQS.    BAND WIDTH + 1 =   30
 STRESS PERIOD=  1 TIMESTEP=269 LAYER=  2 ZONE=  2 ACTIVE CELLS=  833 NUMBER OF EQUATIONS=     833
 UBUDSV SAVING "      ZETASRF  1" ON UNIT 55 AT TIME STEP269, STRESS PERIOD    1

 HEAD WILL BE SAVED ON UNIT   51 AT END OF TIME STEP  269, STRESS PERIOD    1
 
 SOLVING FOR HEAD 
                                                   Max.-Head-Change                         Max.-Flux-Residual
  Residual-Control   Outer-Iter.   Inner-Iter.     Column Row Layer    Maximum-Head-Change  Column Row Layer    Maximum-Flux-Residual          L2-NORM 
          0                 1           1            19   43     2      -0.4167030689E-03      54   28    1        -0.3317632519E+00      0.2755969511E+01
          0                 2           1            40   48     2      -0.6655181109E-04      38   46    2        -0.1103585252E-01      0.1463328409E+00
          0                 3           1            36   25     1       0.5459078031E-04      27   22    1         0.2869885266E-02      0.5804695247E-01
          0                 4           1            32   29     1       0.3602034238E-04      32   28    2         0.2069403338E-02      0.3466582751E-01
          0                 5           1            31   31     2       0.3980152122E-04      32   32    2         0.1768800924E-02      0.2476563896E-01
          0                 6           1            31   31     2       0.2478540798E-04      33   31    2         0.1342546381E-02      0.1937126776E-01
          0                 7           1            31   31     2       0.2491082033E-04      32   32    2         0.1102922336E-02      0.1613173695E-01
          0                 8           1            30   31     1       0.1768060248E-04      33   31    2         0.8618876545E-03      0.1414350312E-01
          0                 9           1            31   31     2       0.1626646679E-04      30   30    2         0.7261257454E-03      0.1259246373E-01
          0                10           1            29   32     1       0.1352395105E-04      39   25    2         0.6357832758E-03      0.1142041418E-01
                                                   Max.-Head-Change                         Max.-Flux-Residual
  Residual-Control   Outer-Iter.   Inner-Iter.     Column Row Layer    Maximum-Head-Change  Column Row Layer    Maximum-Flux-Residual          L2-NORM 
          0                11           1            31   30     1       0.1160777627E-04      40   20    2         0.6347614155E-03      0.1035213208E-01
          0                12           1            29   32     1       0.1053307292E-04      43   41    2         0.5521740317E-03      0.9374231037E-02
          0                13           1            31   30     1       0.9044280869E-05      40   20    2         0.5353672007E-03      0.8531935557E-02

    ------------------------------------------------
       NWT REQUIRED           13 OUTER ITERATIONS 
       AND A TOTAL OF         13 INNER ITERATIONS.
    ------------------------------------------------

 OUTPUT CONTROL FOR STRESS PERIOD    1   TIME STEP  270
    SAVE HEAD FOR ALL LAYERS
 SOLVING FOR ZETA FOR LAYER     1 ZONE     2

     690 UPPER PART EQS.       706 LOWER PART EQS.    BAND WIDTH + 1 =   39
 STRESS PERIOD=  1 TIMESTEP=270 LAYER=  1 ZONE=  2 ACTIVE CELLS= 1396 NUMBER OF EQUATIONS=    1396
 SOLVING FOR ZETA FOR LAYER     2 ZONE     2

     409 UPPER PART EQS.       424 LOWER PART EQS.    BAND WIDTH + 1 =   30
 STRESS PERIOD=  1 TIMESTEP=270 LAYER=  2 ZONE=  2 ACTIVE CELLS=  833 NUMBER OF EQUATIONS=     833
 UBUDSV SAVING "      ZETASRF  1" ON UNIT 55 AT TIME STEP270, STRESS PERIOD    1

 HEAD WILL BE SAVED ON UNIT   51 AT END OF TIME STEP  270, STRESS PERIOD    1
 
 SOLVING FOR HEAD 
                                                   Max.-Head-Change                         Max.-Flux-Residual
  Residual-Control   Outer-Iter.   Inner-Iter.     Column Row Layer    Maximum-Head-Change  Column Row Layer    Maximum-Flux-Residual          L2-NORM 
          0                 1           1            19   43     2      -0.4110430537E-03       8   35    1        -0.3346262315E+00      0.3133379904E+01
          0                 2           1            31   49     2      -0.6143066606E-04      24   16    2        -0.1050516148E-01      0.1371154486E+00
          0                 3           1            25   24     1       0.5256630556E-04      22   42    2         0.2823137050E-02      0.5111016501E-01
          0                 4           1            32   29     1       0.3463770795E-04      30   27    1         0.1970007049E-02      0.3231668601E-01
          0                 5           1            31   31     2       0.4064291212E-04      32   32    2         0.1713517469E-02      0.2506492463E-01
          0                 6           1            30   31     1       0.2577066811E-04      33   31    2         0.1339322233E-02      0.2111742835E-01
          0                 7           1            31   31     2       0.2703921144E-04      30   30    2         0.1134410157E-02      0.1841585402E-01
          0                 8           1            30   31     1       0.1938302876E-04      33   31    2         0.9171659965E-03      0.1657901149E-01
          0                 9           1            31   31     2       0.1824560152E-04      19   37    2         0.8796513736E-03      0.1486435413E-01
          0                10           1            29   32     1       0.1530907973E-04      39   25    2         0.7424512460E-03      0.1352505785E-01
                                                   Max.-Head-Change                         Max.-Flux-Residual
  Residual-Control   Outer-Iter.   Inner-Iter.     Column Row Layer    Maximum-Head-Change  Column Row Layer    Maximum-Flux-Residual          L2-NORM 
          0                11           1            31   30     1       0.1353993636E-04      19   37    2         0.7333906348E-03      0.1221573622E-01
          0                12           1            29   32     1       0.1222808239E-04      39   25    2         0.6216974139E-03      0.1108178982E-01
          0                13           1            32   31     1       0.1072076901E-04      19   37    2         0.5981316632E-03      0.1003473949E-01
          0                14           1            29   32     1       0.9834993234E-05      39   25    2         0.5242802733E-03      0.9085545388E-02

    ------------------------------------------------
       NWT REQUIRED           14 OUTER ITERATIONS 
       AND A TOTAL OF         14 INNER ITERATIONS.
    ------------------------------------------------

 OUTPUT CONTROL FOR STRESS PERIOD    1   TIME STEP  271
    SAVE HEAD FOR ALL LAYERS
 SOLVING FOR ZETA FOR LAYER     1 ZONE     2

     682 UPPER PART EQS.       682 LOWER PART EQS.    BAND WIDTH + 1 =   31
 STRESS PERIOD=  1 TIMESTEP=271 LAYER=  1 ZONE=  2 ACTIVE CELLS= 1364 NUMBER OF EQUATIONS=    1364
 SOLVING FOR ZETA FOR LAYER     2 ZONE     2

     409 UPPER PART EQS.       424 LOWER PART EQS.    BAND WIDTH + 1 =   30
 STRESS PERIOD=  1 TIMESTEP=271 LAYER=  2 ZONE=  2 ACTIVE CELLS=  833 NUMBER OF EQUATIONS=     833
 UBUDSV SAVING "      ZETASRF  1" ON UNIT 55 AT TIME STEP271, STRESS PERIOD    1

 HEAD WILL BE SAVED ON UNIT   51 AT END OF TIME STEP  271, STRESS PERIOD    1
 
 SOLVING FOR HEAD 
                                                   Max.-Head-Change                         Max.-Flux-Residual
  Residual-Control   Outer-Iter.   Inner-Iter.     Column Row Layer    Maximum-Head-Change  Column Row Layer    Maximum-Flux-Residual          L2-NORM 
          0                 1           1            51   53     1       0.4199091297E-03      53   11    1         0.3830737113E+00      0.3180943146E+01
          0                 2           1            40   48     2      -0.6694278607E-04      24   16    2        -0.1145196225E-01      0.1462155501E+00
          0                 3           1            36   25     1       0.5542481334E-04      22   42    2         0.2979766100E-02      0.5918647713E-01
          0                 4           1            32   29     1       0.3632668899E-04      32   28    2         0.2086590092E-02      0.3536428900E-01
          0                 5           1            31   31     2       0.4051164787E-04      32   32    2         0.1791971599E-02      0.2534276669E-01
          0                 6           1            31   31     2       0.2522393576E-04      33   31    2         0.1367166088E-02      0.1987546106E-01
          0                 7           1            31   31     2       0.2535688030E-04      32   32    2         0.1128204498E-02      0.1658220806E-01
          0                 8           1            30   31     1       0.1847617346E-04      33   31    2         0.8842726739E-03      0.1453607799E-01
          0                 9           1            31   31     2       0.1622996502E-04      40   20    2         0.7611173005E-03      0.1295666910E-01
          0                10           1            29   32     1       0.1450104878E-04      40   44    2         0.6482296711E-03      0.1171575509E-01
                                                   Max.-Head-Change                         Max.-Flux-Residual
  Residual-Control   Outer-Iter.   Inner-Iter.     Column Row Layer    Maximum-Head-Change  Column Row Layer    Maximum-Flux-Residual          L2-NORM 
          0                11           1            31   30     1       0.1149183097E-04      40   20    2         0.6750155821E-03      0.1065587103E-01
          0                12           1            29   32     1       0.1134216858E-04      40   44    2         0.5831509291E-03      0.9598035448E-02
          0                13           1            31   30     1       0.8977761444E-05      40   20    2         0.5692126259E-03      0.8777075345E-02

    ------------------------------------------------
       NWT REQUIRED           13 OUTER ITERATIONS 
       AND A TOTAL OF         13 INNER ITERATIONS.
    ------------------------------------------------

 OUTPUT CONTROL FOR STRESS PERIOD    1   TIME STEP  272
    SAVE HEAD FOR ALL LAYERS
 SOLVING FOR ZETA FOR LAYER     1 ZONE     2

     692 UPPER PART EQS.       702 LOWER PART EQS.    BAND WIDTH + 1 =   33
 STRESS PERIOD=  1 TIMESTEP=272 LAYER=  1 ZONE=  2 ACTIVE CELLS= 1394 NUMBER OF EQUATIONS=    1394
 SOLVING FOR ZETA FOR LAYER     2 ZONE     2

     415 UPPER PART EQS.       424 LOWER PART EQS.    BAND WIDTH + 1 =   30
 STRESS PERIOD=  1 TIMESTEP=272 LAYER=  2 ZONE=  2 ACTIVE CELLS=  839 NUMBER OF EQUATIONS=     839
 UBUDSV SAVING "      ZETASRF  1" ON UNIT 55 AT TIME STEP272, STRESS PERIOD    1

 HEAD WILL BE SAVED ON UNIT   51 AT END OF TIME STEP  272, STRESS PERIOD    1
 
 SOLVING FOR HEAD 
                                                   Max.-Head-Change                         Max.-Flux-Residual
  Residual-Control   Outer-Iter.   Inner-Iter.     Column Row Layer    Maximum-Head-Change  Column Row Layer    Maximum-Flux-Residual          L2-NORM 
          0                 1           1            19   43     2      -0.4214701898E-03       8   35    1        -0.3374612528E+00      0.2989556577E+01
          0                 2           1            31   49     2      -0.6259274808E-04      24   16    2        -0.1079986704E-01      0.1337989340E+00
          0                 3           1            25   24     1       0.5223253993E-04      22   42    2         0.2843280408E-02      0.5120767328E-01
          0                 4           1            32   29     1       0.3407236947E-04      31   26    1         0.1953467164E-02      0.3232361473E-01
          0                 5           1            31   31     2       0.4130035856E-04      32   32    2         0.1704826413E-02      0.2504479867E-01
          0                 6           1            30   31     1       0.2509799454E-04      33   31    2         0.1335206150E-02      0.2105157076E-01
          0                 7           1            31   31     2       0.2860963174E-04      30   30    2         0.1135893000E-02      0.1833865397E-01
          0                 8           1            30   31     1       0.1805832491E-04      38   22    2         0.9184585298E-03      0.1651411029E-01
          0                 9           1            31   31     2       0.2004560129E-04      30   30    2         0.7965702829E-03      0.1473193915E-01
          0                10           1            29   32     1       0.1383541340E-04      20   44    2         0.7941694104E-03      0.1347980596E-01
                                                   Max.-Head-Change                         Max.-Flux-Residual
  Residual-Control   Outer-Iter.   Inner-Iter.     Column Row Layer    Maximum-Head-Change  Column Row Layer    Maximum-Flux-Residual          L2-NORM 
          0                11           1            31   30     1       0.1500570676E-04      37   27    2         0.6313259697E-03      0.1204955421E-01
          0                12           1            29   32     1       0.1100383372E-04      20   44    2         0.6696724523E-03      0.1103774305E-01
          0                13           1            32   31     1       0.1179340503E-04      37   27    2         0.5260431836E-03      0.9873082124E-02
          0                14           1            29   32     1       0.8918061301E-05      38   22    2         0.5519424561E-03      0.9036517104E-02

    ------------------------------------------------
       NWT REQUIRED           14 OUTER ITERATIONS 
       AND A TOTAL OF         14 INNER ITERATIONS.
    ------------------------------------------------

 OUTPUT CONTROL FOR STRESS PERIOD    1   TIME STEP  273
    SAVE HEAD FOR ALL LAYERS
 SOLVING FOR ZETA FOR LAYER     1 ZONE     2

     685 UPPER PART EQS.       682 LOWER PART EQS.    BAND WIDTH + 1 =   28
 STRESS PERIOD=  1 TIMESTEP=273 LAYER=  1 ZONE=  2 ACTIVE CELLS= 1367 NUMBER OF EQUATIONS=    1367
 SOLVING FOR ZETA FOR LAYER     2 ZONE     2

     421 UPPER PART EQS.       424 LOWER PART EQS.    BAND WIDTH + 1 =   28
 STRESS PERIOD=  1 TIMESTEP=273 LAYER=  2 ZONE=  2 ACTIVE CELLS=  845 NUMBER OF EQUATIONS=     845
 UBUDSV SAVING "      ZETASRF  1" ON UNIT 55 AT TIME STEP273, STRESS PERIOD    1

 HEAD WILL BE SAVED ON UNIT   51 AT END OF TIME STEP  273, STRESS PERIOD    1
 
 SOLVING FOR HEAD 
                                                   Max.-Head-Change                         Max.-Flux-Residual
  Residual-Control   Outer-Iter.   Inner-Iter.     Column Row Layer    Maximum-Head-Change  Column Row Layer    Maximum-Flux-Residual          L2-NORM 
          0                 1           1            15   31     2      -0.4045757909E-03      54   28    1        -0.3376587986E+00      0.2945744934E+01
          0                 2           1            40   48     2      -0.6503068523E-04      24   16    2        -0.1127475938E-01      0.1397250957E+00
          0                 3           1            36   25     1       0.5082200328E-04      26   23    1         0.2662227024E-02      0.5474303350E-01
          0                 4           1            32   29     1       0.3391852627E-04      32   28    2         0.1941049395E-02      0.3277940949E-01
          0                 5           1            31   31     2       0.3819970155E-04      32   32    2         0.1680318857E-02      0.2366808263E-01
          0                 6           1            31   31     2       0.2367437131E-04      33   31    2         0.1286357079E-02      0.1875554472E-01
          0                 7           1            31   31     2       0.2456714660E-04      32   32    2         0.1062619657E-02      0.1568960984E-01
          0                 8           1            30   31     1       0.1688903453E-04      33   31    2         0.8334920747E-03      0.1381270215E-01
          0                 9           1            31   31     2       0.1624101674E-04      32   32    2         0.7052375196E-03      0.1224049780E-01
          0                10           1            29   32     1       0.1292341508E-04      19   21    2         0.6178346653E-03      0.1113149650E-01
                                                   Max.-Head-Change                         Max.-Flux-Residual
  Residual-Control   Outer-Iter.   Inner-Iter.     Column Row Layer    Maximum-Head-Change  Column Row Layer    Maximum-Flux-Residual          L2-NORM 
          0                11           1            32   31     1       0.1164680691E-04      20   20    2         0.6100698639E-03      0.1000399833E-01
          0                12           1            29   32     1       0.1015813591E-04      20   20    2         0.5613573565E-03      0.9115775571E-02
          0                13           1            32   31     1       0.9042126675E-05      20   20    2         0.5386007506E-03      0.8221212170E-02

    ------------------------------------------------
       NWT REQUIRED           13 OUTER ITERATIONS 
       AND A TOTAL OF         13 INNER ITERATIONS.
    ------------------------------------------------

 OUTPUT CONTROL FOR STRESS PERIOD    1   TIME STEP  274
    SAVE HEAD FOR ALL LAYERS
 SOLVING FOR ZETA FOR LAYER     1 ZONE     2

     679 UPPER PART EQS.       690 LOWER PART EQS.    BAND WIDTH + 1 =   31
 STRESS PERIOD=  1 TIMESTEP=274 LAYER=  1 ZONE=  2 ACTIVE CELLS= 1369 NUMBER OF EQUATIONS=    1369
 SOLVING FOR ZETA FOR LAYER     2 ZONE     2

     425 UPPER PART EQS.       424 LOWER PART EQS.    BAND WIDTH + 1 =   26
 STRESS PERIOD=  1 TIMESTEP=274 LAYER=  2 ZONE=  2 ACTIVE CELLS=  849 NUMBER OF EQUATIONS=     849
 UBUDSV SAVING "      ZETASRF  1" ON UNIT 55 AT TIME STEP274, STRESS PERIOD    1

 HEAD WILL BE SAVED ON UNIT   51 AT END OF TIME STEP  274, STRESS PERIOD    1
 
 SOLVING FOR HEAD 
                                                   Max.-Head-Change                         Max.-Flux-Residual
  Residual-Control   Outer-Iter.   Inner-Iter.     Column Row Layer    Maximum-Head-Change  Column Row Layer    Maximum-Flux-Residual          L2-NORM 
          0                 1           1            53   51     1       0.4063347177E-03       9   51    1         0.3775780014E+00      0.3289193737E+01
          0                 2           1            31   49     2      -0.6554280266E-04      24   16    2        -0.1084431407E-01      0.1338274968E+00
          0                 3           1            25   24     1       0.5317636205E-04      20   40    2         0.2940363581E-02      0.5329679615E-01
          0                 4           1            32   29     1       0.3409907879E-04      40   24    2         0.2005674609E-02      0.3316695019E-01
          0                 5           1            31   31     2       0.4156594047E-04      31   29    2         0.1715601178E-02      0.2536515214E-01
          0                 6           1            30   31     1       0.2530343630E-04      33   31    2         0.1345377044E-02      0.2114769548E-01
          0                 7           1            31   31     2       0.2846599860E-04      32   32    2         0.1145650259E-02      0.1835388466E-01
          0                 8           1            30   31     1       0.1849271621E-04      40   24    2         0.9242445520E-03      0.1644396315E-01
          0                 9           1            31   31     2       0.1953827923E-04      30   30    2         0.7996887989E-03      0.1470256242E-01
          0                10           1            29   32     1       0.1437685482E-04      40   24    2         0.7446630938E-03      0.1338427272E-01
                                                   Max.-Head-Change                         Max.-Flux-Residual
  Residual-Control   Outer-Iter.   Inner-Iter.     Column Row Layer    Maximum-Head-Change  Column Row Layer    Maximum-Flux-Residual          L2-NORM 
          0                11           1            32   31     1       0.1440643128E-04      44   36    2         0.6628049134E-03      0.1203149421E-01
          0                12           1            29   32     1       0.1150736889E-04      40   24    2         0.6125674016E-03      0.1095549458E-01
          0                13           1            32   31     1       0.1128704570E-04      44   36    2         0.5486872549E-03      0.9867814690E-02
          0                14           1            29   32     1       0.9321701977E-05      38   22    2         0.5138156496E-03      0.8974564275E-02

    ------------------------------------------------
       NWT REQUIRED           14 OUTER ITERATIONS 
       AND A TOTAL OF         14 INNER ITERATIONS.
    ------------------------------------------------

 OUTPUT CONTROL FOR STRESS PERIOD    1   TIME STEP  275
    SAVE HEAD FOR ALL LAYERS
 SOLVING FOR ZETA FOR LAYER     1 ZONE     2

     693 UPPER PART EQS.       676 LOWER PART EQS.    BAND WIDTH + 1 =   34
 STRESS PERIOD=  1 TIMESTEP=275 LAYER=  1 ZONE=  2 ACTIVE CELLS= 1369 NUMBER OF EQUATIONS=    1369
 SOLVING FOR ZETA FOR LAYER     2 ZONE     2

     429 UPPER PART EQS.       424 LOWER PART EQS.    BAND WIDTH + 1 =   28
 STRESS PERIOD=  1 TIMESTEP=275 LAYER=  2 ZONE=  2 ACTIVE CELLS=  853 NUMBER OF EQUATIONS=     853
 UBUDSV SAVING "      ZETASRF  1" ON UNIT 55 AT TIME STEP275, STRESS PERIOD    1

 HEAD WILL BE SAVED ON UNIT   51 AT END OF TIME STEP  275, STRESS PERIOD    1
 
 SOLVING FOR HEAD 
                                                   Max.-Head-Change                         Max.-Flux-Residual
  Residual-Control   Outer-Iter.   Inner-Iter.     Column Row Layer    Maximum-Head-Change  Column Row Layer    Maximum-Flux-Residual          L2-NORM 
          0                 1           1            16   30     2      -0.4501085968E-03      54   28    1        -0.3406758712E+00      0.2975314416E+01
          0                 2           1            40   48     2      -0.6395621019E-04      24   16    2        -0.1108919787E-01      0.1380936437E+00
          0                 3           1            37   26     1       0.5114056234E-04      26   23    1         0.2692638767E-02      0.5470653034E-01
          0                 4           1            32   29     1       0.3385622635E-04      32   28    2         0.1939600722E-02      0.3273888972E-01
          0                 5           1            31   31     2       0.3856385434E-04      32   32    2         0.1682709973E-02      0.2374803734E-01
          0                 6           1            31   31     2       0.2371309183E-04      33   31    2         0.1286877361E-02      0.1885708070E-01
          0                 7           1            31   31     2       0.2480375954E-04      32   32    2         0.1068992693E-02      0.1586167507E-01
          0                 8           1            30   31     1       0.1709375941E-04      33   31    2         0.8360826334E-03      0.1395863393E-01
          0                 9           1            31   31     2       0.1632888785E-04      30   30    2         0.7132339617E-03      0.1241434316E-01
          0                10           1            29   32     1       0.1317592299E-04      34   30    2         0.6011463078E-03      0.1126506628E-01
                                                   Max.-Head-Change                         Max.-Flux-Residual
  Residual-Control   Outer-Iter.   Inner-Iter.     Column Row Layer    Maximum-Head-Change  Column Row Layer    Maximum-Flux-Residual          L2-NORM 
          0                11           1            32   31     1       0.1168909445E-04      43   25    2         0.5335527536E-03      0.1015652349E-01
          0                12           1            29   32     1       0.1040342489E-04      38   22    2         0.5021696779E-03      0.9226089668E-02
          0                13           1            32   31     1       0.9068921442E-05      20   20    2         0.4555592024E-03      0.8349622017E-02

    ------------------------------------------------
       NWT REQUIRED           13 OUTER ITERATIONS 
       AND A TOTAL OF         13 INNER ITERATIONS.
    ------------------------------------------------

 OUTPUT CONTROL FOR STRESS PERIOD    1   TIME STEP  276
    SAVE HEAD FOR ALL LAYERS
 SOLVING FOR ZETA FOR LAYER     1 ZONE     2

     687 UPPER PART EQS.       696 LOWER PART EQS.    BAND WIDTH + 1 =   32
 STRESS PERIOD=  1 TIMESTEP=276 LAYER=  1 ZONE=  2 ACTIVE CELLS= 1383 NUMBER OF EQUATIONS=    1383
 SOLVING FOR ZETA FOR LAYER     2 ZONE     2

     433 UPPER PART EQS.       432 LOWER PART EQS.    BAND WIDTH + 1 =   28
 STRESS PERIOD=  1 TIMESTEP=276 LAYER=  2 ZONE=  2 ACTIVE CELLS=  865 NUMBER OF EQUATIONS=     865
 UBUDSV SAVING "      ZETASRF  1" ON UNIT 55 AT TIME STEP276, STRESS PERIOD    1

 HEAD WILL BE SAVED ON UNIT   51 AT END OF TIME STEP  276, STRESS PERIOD    1
 
 SOLVING FOR HEAD 
                                                   Max.-Head-Change                         Max.-Flux-Residual
  Residual-Control   Outer-Iter.   Inner-Iter.     Column Row Layer    Maximum-Head-Change  Column Row Layer    Maximum-Flux-Residual          L2-NORM 
          0                 1           1            16   33     2      -0.4719901397E-03       8   35    1        -0.3432258240E+00      0.3233560182E+01
          0                 2           1            30   14     2      -0.5570637168E-04      24   16    2        -0.1121747257E-01      0.1265075720E+00
          0                 3           1            25   24     1       0.4945323714E-04      20   40    2         0.2668322023E-02      0.4827519529E-01
          0                 4           1            32   29     1       0.3231243299E-04      40   24    2         0.1895848057E-02      0.3085650585E-01
          0                 5           1            31   31     2       0.3973530372E-04      31   29    2         0.1618273051E-02      0.2430319595E-01
          0                 6           1            30   31     1       0.2446694743E-04      33   31    2         0.1279214205E-02      0.2070223547E-01
          0                 7           1            31   31     2       0.2706338547E-04      32   32    2         0.1094935202E-02      0.1812500190E-01
          0                 8           1            30   31     1       0.1847717231E-04      40   24    2         0.9188422346E-03      0.1632247437E-01
          0                 9           1            31   31     2       0.1841126090E-04      20   40    2         0.8082962585E-03      0.1460309566E-01
          0                10           1            29   32     1       0.1471997855E-04      40   24    2         0.7417032498E-03      0.1328662853E-01
                                                   Max.-Head-Change                         Max.-Flux-Residual
  Residual-Control   Outer-Iter.   Inner-Iter.     Column Row Layer    Maximum-Head-Change  Column Row Layer    Maximum-Flux-Residual          L2-NORM 
          0                11           1            32   31     1       0.1365515127E-04      20   40    2         0.6718287830E-03      0.1195792695E-01
          0                12           1            29   32     1       0.1189992509E-04      40   24    2         0.6101738987E-03      0.1086968154E-01
          0                13           1            32   31     1       0.1075940001E-04      20   40    2         0.5385243685E-03      0.9808184232E-02
          0                14           1            29   32     1       0.9657473764E-05      38   22    2         0.5064149534E-03      0.8904075977E-02

    ------------------------------------------------
       NWT REQUIRED           14 OUTER ITERATIONS 
       AND A TOTAL OF         14 INNER ITERATIONS.
    ------------------------------------------------

 OUTPUT CONTROL FOR STRESS PERIOD    1   TIME STEP  277
    SAVE HEAD FOR ALL LAYERS
 SOLVING FOR ZETA FOR LAYER     1 ZONE     2

     677 UPPER PART EQS.       668 LOWER PART EQS.    BAND WIDTH + 1 =   34
 STRESS PERIOD=  1 TIMESTEP=277 LAYER=  1 ZONE=  2 ACTIVE CELLS= 1345 NUMBER OF EQUATIONS=    1345
 SOLVING FOR ZETA FOR LAYER     2 ZONE     2

     441 UPPER PART EQS.       432 LOWER PART EQS.    BAND WIDTH + 1 =   28
 STRESS PERIOD=  1 TIMESTEP=277 LAYER=  2 ZONE=  2 ACTIVE CELLS=  873 NUMBER OF EQUATIONS=     873
 UBUDSV SAVING "      ZETASRF  1" ON UNIT 55 AT TIME STEP277, STRESS PERIOD    1

 HEAD WILL BE SAVED ON UNIT   51 AT END OF TIME STEP  277, STRESS PERIOD    1
 
 SOLVING FOR HEAD 
                                                   Max.-Head-Change                         Max.-Flux-Residual
  Residual-Control   Outer-Iter.   Inner-Iter.     Column Row Layer    Maximum-Head-Change  Column Row Layer    Maximum-Flux-Residual          L2-NORM 
          0                 1           1            51   53     1       0.4151664909E-03      51    9    1         0.3809763633E+00      0.3183028289E+01
          0                 2           1            23   49     2      -0.6634995230E-04      37   47    2        -0.1031481568E-01      0.1354982396E+00
          0                 3           1            37   26     1       0.5036349466E-04      26   23    1         0.2641342333E-02      0.5625509873E-01
          0                 4           1            32   29     1       0.3324278446E-04      33   27    2         0.1911738666E-02      0.3343100173E-01
          0                 5           1            31   31     2       0.3833588064E-04      32   32    2         0.1659093629E-02      0.2380749265E-01
          0                 6           1            30   31     1       0.2291011686E-04      33   31    2         0.1267649864E-02      0.1865293539E-01
          0                 7           1            31   31     2       0.2493262810E-04      32   32    2         0.1056242069E-02      0.1550680734E-01
          0                 8           1            30   31     1       0.1620480160E-04      34   30    2         0.8167251219E-03      0.1362346811E-01
          0                 9           1            31   31     2       0.1644948457E-04      32   32    2         0.6984043710E-03      0.1204542816E-01
          0                10           1            29   32     1       0.1239126653E-04      19   21    2         0.6116278474E-03      0.1098265217E-01
                                                   Max.-Head-Change                         Max.-Flux-Residual
  Residual-Control   Outer-Iter.   Inner-Iter.     Column Row Layer    Maximum-Head-Change  Column Row Layer    Maximum-Flux-Residual          L2-NORM 
          0                11           1            32   31     1       0.1170570112E-04      19   21    2         0.5732986184E-03      0.9852420584E-02
          0                12           1            29   32     1       0.9720556852E-05      19   21    2         0.5545808690E-03      0.9001127522E-02

    ------------------------------------------------
       NWT REQUIRED           12 OUTER ITERATIONS 
       AND A TOTAL OF         12 INNER ITERATIONS.
    ------------------------------------------------

 OUTPUT CONTROL FOR STRESS PERIOD    1   TIME STEP  278
    SAVE HEAD FOR ALL LAYERS
 SOLVING FOR ZETA FOR LAYER     1 ZONE     2

     687 UPPER PART EQS.       696 LOWER PART EQS.    BAND WIDTH + 1 =   32
 STRESS PERIOD=  1 TIMESTEP=278 LAYER=  1 ZONE=  2 ACTIVE CELLS= 1383 NUMBER OF EQUATIONS=    1383
 SOLVING FOR ZETA FOR LAYER     2 ZONE     2

     449 UPPER PART EQS.       432 LOWER PART EQS.    BAND WIDTH + 1 =   30
 STRESS PERIOD=  1 TIMESTEP=278 LAYER=  2 ZONE=  2 ACTIVE CELLS=  881 NUMBER OF EQUATIONS=     881
 UBUDSV SAVING "      ZETASRF  1" ON UNIT 55 AT TIME STEP278, STRESS PERIOD    1

 HEAD WILL BE SAVED ON UNIT   51 AT END OF TIME STEP  278, STRESS PERIOD    1
 
 SOLVING FOR HEAD 
                                                   Max.-Head-Change                         Max.-Flux-Residual
  Residual-Control   Outer-Iter.   Inner-Iter.     Column Row Layer    Maximum-Head-Change  Column Row Layer    Maximum-Flux-Residual          L2-NORM 
          0                 1           1            16   34     2      -0.4689573485E-03      54   35    1        -0.3461921720E+00      0.3371638426E+01
          0                 2           1            32   48     2      -0.6178227625E-04      32   48    2        -0.1201202632E-01      0.1277314557E+00
          0                 3           1            25   24     1       0.5161327934E-04      26   23    1         0.2675681215E-02      0.4962705052E-01
          0                 4           1            32   29     1       0.3329105662E-04      30   26    2         0.1889658704E-02      0.3134037839E-01
          0                 5           1            31   31     2       0.4045425424E-04      32   32    2         0.1655515297E-02      0.2449946349E-01
          0                 6           1            30   31     1       0.2499543973E-04      33   31    2         0.1299868683E-02      0.2077871971E-01
          0                 7           1            31   31     2       0.2688254367E-04      30   30    2         0.1104998236E-02      0.1813772390E-01
          0                 8           1            30   31     1       0.1887912921E-04      34   30    2         0.8971521384E-03      0.1632296466E-01
          0                 9           1            31   31     2       0.1833581300E-04      43   29    2         0.8932396307E-03      0.1459755598E-01
          0                10           1            29   32     1       0.1481592380E-04      40   24    2         0.7258779102E-03      0.1327983995E-01
                                                   Max.-Head-Change                         Max.-Flux-Residual
  Residual-Control   Outer-Iter.   Inner-Iter.     Column Row Layer    Maximum-Head-Change  Column Row Layer    Maximum-Flux-Residual          L2-NORM 
          0                11           1            32   31     1       0.1376040072E-04      43   29    2         0.7256551777E-03      0.1194817910E-01
          0                12           1            29   32     1       0.1176304059E-04      40   24    2         0.6051698391E-03      0.1086474959E-01
          0                13           1            32   31     1       0.1099655365E-04      43   29    2         0.5860584050E-03      0.9792395640E-02
          0                14           1            29   32     1       0.9410084883E-05      40   24    2         0.5088741310E-03      0.8901007822E-02

    ------------------------------------------------
       NWT REQUIRED           14 OUTER ITERATIONS 
       AND A TOTAL OF         14 INNER ITERATIONS.
    ------------------------------------------------

 OUTPUT CONTROL FOR STRESS PERIOD    1   TIME STEP  279
    SAVE HEAD FOR ALL LAYERS
 SOLVING FOR ZETA FOR LAYER     1 ZONE     2

     693 UPPER PART EQS.       676 LOWER PART EQS.    BAND WIDTH + 1 =   34
 STRESS PERIOD=  1 TIMESTEP=279 LAYER=  1 ZONE=  2 ACTIVE CELLS= 1369 NUMBER OF EQUATIONS=    1369
 SOLVING FOR ZETA FOR LAYER     2 ZONE     2

     449 UPPER PART EQS.       448 LOWER PART EQS.    BAND WIDTH + 1 =   30
 STRESS PERIOD=  1 TIMESTEP=279 LAYER=  2 ZONE=  2 ACTIVE CELLS=  897 NUMBER OF EQUATIONS=     897
 UBUDSV SAVING "      ZETASRF  1" ON UNIT 55 AT TIME STEP279, STRESS PERIOD    1

 HEAD WILL BE SAVED ON UNIT   51 AT END OF TIME STEP  279, STRESS PERIOD    1
 
 SOLVING FOR HEAD 
                                                   Max.-Head-Change                         Max.-Flux-Residual
  Residual-Control   Outer-Iter.   Inner-Iter.     Column Row Layer    Maximum-Head-Change  Column Row Layer    Maximum-Flux-Residual          L2-NORM 
          0                 1           1             8   34     1      -0.3935445545E-03      54   28    1        -0.3467317408E+00      0.2914638598E+01
          0                 2           1            23   49     2      -0.6199977378E-04      37   47    2        -0.1019960864E-01      0.1301855976E+00
          0                 3           1            37   26     1       0.4713870620E-04      26   23    1         0.2488144447E-02      0.5093252547E-01
          0                 4           1            32   29     1       0.3173815908E-04      33   27    2         0.1803458528E-02      0.3061058592E-01
          0                 5           1            31   31     2       0.3626006362E-04      32   32    2         0.1576151186E-02      0.2236117059E-01
          0                 6           1            30   31     1       0.2249944158E-04      33   31    2         0.1210840507E-02      0.1789527124E-01
          0                 7           1            31   31     2       0.2381910161E-04      32   32    2         0.1008990589E-02      0.1512291838E-01
          0                 8           1            30   31     1       0.1598796352E-04      33   31    2         0.7906149244E-03      0.1333882475E-01
          0                 9           1            31   31     2       0.1609737551E-04      30   30    2         0.6769718210E-03      0.1186192900E-01
          0                10           1            29   32     1       0.1209042224E-04      40   24    2         0.5801964985E-03      0.1077179825E-01
                                                   Max.-Head-Change                         Max.-Flux-Residual
  Residual-Control   Outer-Iter.   Inner-Iter.     Column Row Layer    Maximum-Head-Change  Column Row Layer    Maximum-Flux-Residual          L2-NORM 
          0                11           1            32   31     1       0.1173904503E-04      44   32    2         0.5507014278E-03      0.9679790204E-02
          0                12           1            29   32     1       0.9457888287E-05      40   24    2         0.4816627803E-03      0.8819903930E-02

    ------------------------------------------------
       NWT REQUIRED           12 OUTER ITERATIONS 
       AND A TOTAL OF         12 INNER ITERATIONS.
    ------------------------------------------------

 OUTPUT CONTROL FOR STRESS PERIOD    1   TIME STEP  280
    SAVE HEAD FOR ALL LAYERS
 SOLVING FOR ZETA FOR LAYER     1 ZONE     2

     673 UPPER PART EQS.       690 LOWER PART EQS.    BAND WIDTH + 1 =   36
 STRESS PERIOD=  1 TIMESTEP=280 LAYER=  1 ZONE=  2 ACTIVE CELLS= 1363 NUMBER OF EQUATIONS=    1363
 SOLVING FOR ZETA FOR LAYER     2 ZONE     2

     449 UPPER PART EQS.       448 LOWER PART EQS.    BAND WIDTH + 1 =   30
 STRESS PERIOD=  1 TIMESTEP=280 LAYER=  2 ZONE=  2 ACTIVE CELLS=  897 NUMBER OF EQUATIONS=     897
 UBUDSV SAVING "      ZETASRF  1" ON UNIT 55 AT TIME STEP280, STRESS PERIOD    1

 HEAD WILL BE SAVED ON UNIT   51 AT END OF TIME STEP  280, STRESS PERIOD    1
 
 SOLVING FOR HEAD 
                                                   Max.-Head-Change                         Max.-Flux-Residual
  Residual-Control   Outer-Iter.   Inner-Iter.     Column Row Layer    Maximum-Head-Change  Column Row Layer    Maximum-Flux-Residual          L2-NORM 
          0                 1           1            53   51     1       0.4091076788E-03      53   11    1         0.3804328754E+00      0.3259618869E+01
          0                 2           1            31   49     2      -0.6134987627E-04      32   48    2        -0.1078201454E-01      0.1265299633E+00
          0                 3           1            25   24     1       0.5016491574E-04      26   23    1         0.2610207708E-02      0.5096238538E-01
          0                 4           1            32   29     1       0.3261371245E-04      40   24    2         0.1863457220E-02      0.3194626702E-01
          0                 5           1            31   31     2       0.4012140185E-04      32   32    2         0.1642892150E-02      0.2470518457E-01
          0                 6           1            30   31     1       0.2468214303E-04      33   31    2         0.1303020470E-02      0.2078461997E-01
          0                 7           1            31   31     2       0.2787060168E-04      32   32    2         0.1111365416E-02      0.1811181617E-01
          0                 8           1            30   31     1       0.1807899636E-04      40   24    2         0.9071632503E-03      0.1625123308E-01
          0                 9           1            31   31     2       0.1939978610E-04      32   32    2         0.7804729757E-03      0.1453106736E-01
          0                10           1            29   32     1       0.1393207961E-04      40   24    2         0.7456940463E-03      0.1322085353E-01
                                                   Max.-Head-Change                         Max.-Flux-Residual
  Residual-Control   Outer-Iter.   Inner-Iter.     Column Row Layer    Maximum-Head-Change  Column Row Layer    Maximum-Flux-Residual          L2-NORM 
          0                11           1            32   31     1       0.1454524499E-04      42   22    2         0.6332316369E-03      0.1187126689E-01
          0                12           1            29   32     1       0.1104153123E-04      40   24    2         0.6235651348E-03      0.1081254970E-01
          0                13           1            32   31     1       0.1152310860E-04      42   22    2         0.5308994439E-03      0.9717308075E-02
          0                14           1            29   32     1       0.8872991272E-05      40   24    2         0.5242379192E-03      0.8851483762E-02

    ------------------------------------------------
       NWT REQUIRED           14 OUTER ITERATIONS 
       AND A TOTAL OF         14 INNER ITERATIONS.
    ------------------------------------------------

 OUTPUT CONTROL FOR STRESS PERIOD    1   TIME STEP  281
    SAVE HEAD FOR ALL LAYERS
 SOLVING FOR ZETA FOR LAYER     1 ZONE     2

     689 UPPER PART EQS.       674 LOWER PART EQS.    BAND WIDTH + 1 =   32
 STRESS PERIOD=  1 TIMESTEP=281 LAYER=  1 ZONE=  2 ACTIVE CELLS= 1363 NUMBER OF EQUATIONS=    1363
 SOLVING FOR ZETA FOR LAYER     2 ZONE     2

     449 UPPER PART EQS.       448 LOWER PART EQS.    BAND WIDTH + 1 =   30
 STRESS PERIOD=  1 TIMESTEP=281 LAYER=  2 ZONE=  2 ACTIVE CELLS=  897 NUMBER OF EQUATIONS=     897
 UBUDSV SAVING "      ZETASRF  1" ON UNIT 55 AT TIME STEP281, STRESS PERIOD    1

 HEAD WILL BE SAVED ON UNIT   51 AT END OF TIME STEP  281, STRESS PERIOD    1
 
 SOLVING FOR HEAD 
                                                   Max.-Head-Change                         Max.-Flux-Residual
  Residual-Control   Outer-Iter.   Inner-Iter.     Column Row Layer    Maximum-Head-Change  Column Row Layer    Maximum-Flux-Residual          L2-NORM 
          0                 1           1            35   46     2      -0.4562616694E-03      54   34    1        -0.3497944153E+00      0.3050864658E+01
          0                 2           1            40   48     2      -0.6141983781E-04      37   47    2        -0.1035368027E-01      0.1279853439E+00
          0                 3           1            37   26     1       0.4729489625E-04      26   23    1         0.2499151177E-02      0.5169826137E-01
          0                 4           1            32   29     1       0.3161321644E-04      33   27    2         0.1806635167E-02      0.3109453504E-01
          0                 5           1            31   31     2       0.3692717494E-04      32   32    2         0.1585296711E-02      0.2275804812E-01
          0                 6           1            30   31     1       0.2236676730E-04      33   31    2         0.1221219049E-02      0.1818355536E-01
          0                 7           1            31   31     2       0.2491660832E-04      32   32    2         0.1026603859E-02      0.1539332837E-01
          0                 8           1            30   31     1       0.1567316200E-04      34   30    2         0.7984672043E-03      0.1357673237E-01
          0                 9           1            31   31     2       0.1706578401E-04      32   32    2         0.6902532278E-03      0.1206858739E-01
          0                10           1            29   32     1       0.1179090716E-04      21   43    2         0.6284543041E-03      0.1098029153E-01
                                                   Max.-Head-Change                         Max.-Flux-Residual
  Residual-Control   Outer-Iter.   Inner-Iter.     Column Row Layer    Maximum-Head-Change  Column Row Layer    Maximum-Flux-Residual          L2-NORM 
          0                11           1            32   31     1       0.1237600947E-04      21   43    2         0.5773124512E-03      0.9838554613E-02
          0                12           1            29   32     1       0.9301136769E-05      21   43    2         0.5562280446E-03      0.8989344060E-02

    ------------------------------------------------
       NWT REQUIRED           12 OUTER ITERATIONS 
       AND A TOTAL OF         12 INNER ITERATIONS.
    ------------------------------------------------

 OUTPUT CONTROL FOR STRESS PERIOD    1   TIME STEP  282
    SAVE HEAD FOR ALL LAYERS
 SOLVING FOR ZETA FOR LAYER     1 ZONE     2

     683 UPPER PART EQS.       690 LOWER PART EQS.    BAND WIDTH + 1 =   30
 STRESS PERIOD=  1 TIMESTEP=282 LAYER=  1 ZONE=  2 ACTIVE CELLS= 1373 NUMBER OF EQUATIONS=    1373
 SOLVING FOR ZETA FOR LAYER     2 ZONE     2

     457 UPPER PART EQS.       448 LOWER PART EQS.    BAND WIDTH + 1 =   30
 STRESS PERIOD=  1 TIMESTEP=282 LAYER=  2 ZONE=  2 ACTIVE CELLS=  905 NUMBER OF EQUATIONS=     905
 UBUDSV SAVING "      ZETASRF  1" ON UNIT 55 AT TIME STEP282, STRESS PERIOD    1

 HEAD WILL BE SAVED ON UNIT   51 AT END OF TIME STEP  282, STRESS PERIOD    1
 
 SOLVING FOR HEAD 
                                                   Max.-Head-Change                         Max.-Flux-Residual
  Residual-Control   Outer-Iter.   Inner-Iter.     Column Row Layer    Maximum-Head-Change  Column Row Layer    Maximum-Flux-Residual          L2-NORM 
          0                 1           1             8   27     1      -0.3959756689E-03      54   27    1        -0.3521210838E+00      0.3105112324E+01
          0                 2           1            31   49     2      -0.5601794876E-04      25   15    2        -0.9414430028E-02      0.1209845721E+00
          0                 3           1            25   24     1       0.4774183150E-04      27   22    1         0.2462727218E-02      0.4674079428E-01
          0                 4           1            32   29     1       0.3137614146E-04      31   25    2         0.1765503971E-02      0.3010932484E-01
          0                 5           1            31   31     2       0.3911408529E-04      31   29    2         0.1574227473E-02      0.2405523225E-01
          0                 6           1            30   31     1       0.2422407193E-04      33   31    2         0.1254953060E-02      0.2065992669E-01
          0                 7           1            31   31     2       0.2721457787E-04      32   32    2         0.1080138793E-02      0.1819730515E-01
          0                 8           1            30   31     1       0.1809280932E-04      40   24    2         0.9085087892E-03      0.1640842680E-01
          0                 9           1            31   31     2       0.1905239147E-04      44   32    2         0.8127703569E-03      0.1470397457E-01
          0                10           1            29   32     1       0.1414850186E-04      40   24    2         0.7523030299E-03      0.1337480532E-01
                                                   Max.-Head-Change                         Max.-Flux-Residual
  Residual-Control   Outer-Iter.   Inner-Iter.     Column Row Layer    Maximum-Head-Change  Column Row Layer    Maximum-Flux-Residual          L2-NORM 
          0                11           1            32   31     1       0.1445981325E-04      44   32    2         0.6672862164E-03      0.1202591000E-01
          0                12           1            29   32     1       0.1125945240E-04      40   24    2         0.6318047348E-03      0.1094140680E-01
          0                13           1            32   31     1       0.1156373117E-04      44   32    2         0.5424284385E-03      0.9845495548E-02
          0                14           1            29   32     1       0.9043573719E-05      40   24    2         0.5328715214E-03      0.8958465068E-02

    ------------------------------------------------
       NWT REQUIRED           14 OUTER ITERATIONS 
       AND A TOTAL OF         14 INNER ITERATIONS.
    ------------------------------------------------

 OUTPUT CONTROL FOR STRESS PERIOD    1   TIME STEP  283
    SAVE HEAD FOR ALL LAYERS
 SOLVING FOR ZETA FOR LAYER     1 ZONE     2

     665 UPPER PART EQS.       668 LOWER PART EQS.    BAND WIDTH + 1 =   30
 STRESS PERIOD=  1 TIMESTEP=283 LAYER=  1 ZONE=  2 ACTIVE CELLS= 1333 NUMBER OF EQUATIONS=    1333
 SOLVING FOR ZETA FOR LAYER     2 ZONE     2

     457 UPPER PART EQS.       448 LOWER PART EQS.    BAND WIDTH + 1 =   30
 STRESS PERIOD=  1 TIMESTEP=283 LAYER=  2 ZONE=  2 ACTIVE CELLS=  905 NUMBER OF EQUATIONS=     905
 UBUDSV SAVING "      ZETASRF  1" ON UNIT 55 AT TIME STEP283, STRESS PERIOD    1

 HEAD WILL BE SAVED ON UNIT   51 AT END OF TIME STEP  283, STRESS PERIOD    1
 
 SOLVING FOR HEAD 
                                                   Max.-Head-Change                         Max.-Flux-Residual
  Residual-Control   Outer-Iter.   Inner-Iter.     Column Row Layer    Maximum-Head-Change  Column Row Layer    Maximum-Flux-Residual          L2-NORM 
          0                 1           1            51   53     1       0.4203120880E-03      51    9    1         0.3845501718E+00      0.3428765622E+01
          0                 2           1            23   49     2      -0.6352656108E-04      37   47    2        -0.1041055346E-01      0.1306061984E+00
          0                 3           1            36   25     1       0.4733258158E-04      27   22    1         0.2455268390E-02      0.5396883950E-01
          0                 4           1            32   29     1       0.3081274948E-04      33   27    2         0.1782792086E-02      0.3187918676E-01
          0                 5           1            31   31     2       0.3647940527E-04      32   32    2         0.1559868049E-02      0.2261002699E-01
          0                 6           1            30   31     1       0.2128254613E-04      33   31    2         0.1193100892E-02      0.1761993385E-01
          0                 7           1            31   31     2       0.2406298562E-04      32   32    2         0.9977153229E-03      0.1459847971E-01
          0                 8           1            30   31     1       0.1492727790E-04      33   31    2         0.7667998465E-03      0.1278066455E-01
          0                 9           1            31   31     2       0.1587982140E-04      32   32    2         0.6574671903E-03      0.1128019225E-01
          0                10           1            29   32     1       0.1145043546E-04      41   31    2         0.5620959241E-03      0.1027723523E-01
                                                   Max.-Head-Change                         Max.-Flux-Residual
  Residual-Control   Outer-Iter.   Inner-Iter.     Column Row Layer    Maximum-Head-Change  Column Row Layer    Maximum-Flux-Residual          L2-NORM 
          0                11           1            32   31     1       0.1116563849E-04      19   21    2         0.5233230874E-03      0.9203885612E-02
          0                12           1            29   32     1       0.9062333956E-05      19   21    2         0.5074162456E-03      0.8411325864E-02

    ------------------------------------------------
       NWT REQUIRED           12 OUTER ITERATIONS 
       AND A TOTAL OF         12 INNER ITERATIONS.
    ------------------------------------------------

 OUTPUT CONTROL FOR STRESS PERIOD    1   TIME STEP  284
    SAVE HEAD FOR ALL LAYERS
 SOLVING FOR ZETA FOR LAYER     1 ZONE     2

     687 UPPER PART EQS.       684 LOWER PART EQS.    BAND WIDTH + 1 =   27
 STRESS PERIOD=  1 TIMESTEP=284 LAYER=  1 ZONE=  2 ACTIVE CELLS= 1371 NUMBER OF EQUATIONS=    1371
 SOLVING FOR ZETA FOR LAYER     2 ZONE     2

     457 UPPER PART EQS.       448 LOWER PART EQS.    BAND WIDTH + 1 =   30
 STRESS PERIOD=  1 TIMESTEP=284 LAYER=  2 ZONE=  2 ACTIVE CELLS=  905 NUMBER OF EQUATIONS=     905
 UBUDSV SAVING "      ZETASRF  1" ON UNIT 55 AT TIME STEP284, STRESS PERIOD    1

 HEAD WILL BE SAVED ON UNIT   51 AT END OF TIME STEP  284, STRESS PERIOD    1
 
 SOLVING FOR HEAD 
                                                   Max.-Head-Change                         Max.-Flux-Residual
  Residual-Control   Outer-Iter.   Inner-Iter.     Column Row Layer    Maximum-Head-Change  Column Row Layer    Maximum-Flux-Residual          L2-NORM 
          0                 1           1            16   36     2      -0.4529787588E-03      54   27    1        -0.3551487574E+00      0.3380707647E+01
          0                 2           1            31   49     2      -0.5603001207E-04      33   47    2        -0.1149999274E-01      0.1227057029E+00
          0                 3           1            25   24     1       0.4853389399E-04      26   23    1         0.2527987513E-02      0.4752009737E-01
          0                 4           1            32   29     1       0.3142532253E-04      31   25    2         0.1784423336E-02      0.3042682694E-01
          0                 5           1            31   31     2       0.4028302019E-04      31   29    2         0.1591443956E-02      0.2428891117E-01
          0                 6           1            30   31     1       0.2395969342E-04      33   31    2         0.1266647544E-02      0.2084549074E-01
          0                 7           1            31   31     2       0.2833830766E-04      32   32    2         0.1091751732E-02      0.1834208822E-01
          0                 8           1            30   31     1       0.1774333430E-04      40   28    2         0.9169095629E-03      0.1655446257E-01
          0                 9           1            31   31     2       0.1970674210E-04      32   32    2         0.7807605741E-03      0.1480062533E-01
          0                10           1            29   32     1       0.1398715547E-04      40   24    2         0.7439897490E-03      0.1348262252E-01
                                                   Max.-Head-Change                         Max.-Flux-Residual
  Residual-Control   Outer-Iter.   Inner-Iter.     Column Row Layer    Maximum-Head-Change  Column Row Layer    Maximum-Flux-Residual          L2-NORM 
          0                11           1            32   31     1       0.1475112325E-04      42   22    2         0.6683191010E-03      0.1209497448E-01
          0                12           1            29   32     1       0.1125704029E-04      40   24    2         0.6214470578E-03      0.1101565799E-01
          0                13           1            32   31     1       0.1165868001E-04      42   22    2         0.5620872473E-03      0.9899084695E-02
          0                14           1            29   32     1       0.9130159338E-05      40   24    2         0.5214603802E-03      0.9009000669E-02

    ------------------------------------------------
       NWT REQUIRED           14 OUTER ITERATIONS 
       AND A TOTAL OF         14 INNER ITERATIONS.
    ------------------------------------------------

 OUTPUT CONTROL FOR STRESS PERIOD    1   TIME STEP  285
    SAVE HEAD FOR ALL LAYERS
 SOLVING FOR ZETA FOR LAYER     1 ZONE     2

     677 UPPER PART EQS.       670 LOWER PART EQS.    BAND WIDTH + 1 =   28
 STRESS PERIOD=  1 TIMESTEP=285 LAYER=  1 ZONE=  2 ACTIVE CELLS= 1347 NUMBER OF EQUATIONS=    1347
 SOLVING FOR ZETA FOR LAYER     2 ZONE     2

     457 UPPER PART EQS.       456 LOWER PART EQS.    BAND WIDTH + 1 =   30
 STRESS PERIOD=  1 TIMESTEP=285 LAYER=  2 ZONE=  2 ACTIVE CELLS=  913 NUMBER OF EQUATIONS=     913
 UBUDSV SAVING "      ZETASRF  1" ON UNIT 55 AT TIME STEP285, STRESS PERIOD    1

 HEAD WILL BE SAVED ON UNIT   51 AT END OF TIME STEP  285, STRESS PERIOD    1
 
 SOLVING FOR HEAD 
                                                   Max.-Head-Change                         Max.-Flux-Residual
  Residual-Control   Outer-Iter.   Inner-Iter.     Column Row Layer    Maximum-Head-Change  Column Row Layer    Maximum-Flux-Residual          L2-NORM 
          0                 1           1             8   33     1      -0.4054992713E-03      54   34    1        -0.3560290412E+00      0.3038076118E+01
          0                 2           1            23   49     2      -0.6137638631E-04      37   47    2        -0.1004369922E-01      0.1264975335E+00
          0                 3           1            37   26     1       0.4436404600E-04      27   22    1         0.2354099353E-02      0.4971877847E-01
          0                 4           1            32   29     1       0.2989069986E-04      33   27    2         0.1701619249E-02      0.2964258109E-01
          0                 5           1            31   31     2       0.3461677498E-04      31   29    2         0.1499494757E-02      0.2159699186E-01
          0                 6           1            30   31     1       0.2151152511E-04      33   31    2         0.1158832961E-02      0.1723819717E-01
          0                 7           1            31   31     2       0.2280492381E-04      32   32    2         0.9696931771E-03      0.1455832028E-01
          0                 8           1            30   31     1       0.1552195141E-04      33   31    2         0.7592034581E-03      0.1285318120E-01
          0                 9           1            31   31     2       0.1514080910E-04      32   32    2         0.6504646286E-03      0.1143870986E-01
          0                10           1            29   32     1       0.1198666685E-04      19   41    2         0.6224387123E-03      0.1039109217E-01
                                                   Max.-Head-Change                         Max.-Flux-Residual
  Residual-Control   Outer-Iter.   Inner-Iter.     Column Row Layer    Maximum-Head-Change  Column Row Layer    Maximum-Flux-Residual          L2-NORM 
          0                11           1            32   31     1       0.1086987911E-04      19   41    2         0.5755907627E-03      0.9363360669E-02
          0                12           1            29   32     1       0.9462913986E-05      19   41    2         0.5492931660E-03      0.8509470496E-02

    ------------------------------------------------
       NWT REQUIRED           12 OUTER ITERATIONS 
       AND A TOTAL OF         12 INNER ITERATIONS.
    ------------------------------------------------

 OUTPUT CONTROL FOR STRESS PERIOD    1   TIME STEP  286
    SAVE HEAD FOR ALL LAYERS
 SOLVING FOR ZETA FOR LAYER     1 ZONE     2

     671 UPPER PART EQS.       674 LOWER PART EQS.    BAND WIDTH + 1 =   26
 STRESS PERIOD=  1 TIMESTEP=286 LAYER=  1 ZONE=  2 ACTIVE CELLS= 1345 NUMBER OF EQUATIONS=    1345
 SOLVING FOR ZETA FOR LAYER     2 ZONE     2

     457 UPPER PART EQS.       456 LOWER PART EQS.    BAND WIDTH + 1 =   30
 STRESS PERIOD=  1 TIMESTEP=286 LAYER=  2 ZONE=  2 ACTIVE CELLS=  913 NUMBER OF EQUATIONS=     913
 UBUDSV SAVING "      ZETASRF  1" ON UNIT 55 AT TIME STEP286, STRESS PERIOD    1

 HEAD WILL BE SAVED ON UNIT   51 AT END OF TIME STEP  286, STRESS PERIOD    1
 
 SOLVING FOR HEAD 
                                                   Max.-Head-Change                         Max.-Flux-Residual
  Residual-Control   Outer-Iter.   Inner-Iter.     Column Row Layer    Maximum-Head-Change  Column Row Layer    Maximum-Flux-Residual          L2-NORM 
          0                 1           1            53   51     1       0.4129454526E-03      51    9    1         0.3846147111E+00      0.3364589155E+01
          0                 2           1            31   49     2      -0.5696775277E-04      19   17    2        -0.9390837395E-02      0.1217287943E+00
          0                 3           1            37   24     1       0.4715719131E-04      27   22    1         0.2433447577E-02      0.4876887463E-01
          0                 4           1            32   29     1       0.3046114370E-04      40   24    2         0.1743962168E-02      0.3055120619E-01
          0                 5           1            31   31     2       0.3845585575E-04      31   29    2         0.1553090774E-02      0.2380510947E-01
          0                 6           1            30   31     1       0.2355337789E-04      33   31    2         0.1243920713E-02      0.2011493861E-01
          0                 7           1            31   31     2       0.2735381532E-04      32   32    2         0.1068695439E-02      0.1757975798E-01
          0                 8           1            30   31     1       0.1723527051E-04      41   27    2         0.8722578347E-03      0.1577134825E-01
          0                 9           1            31   31     2       0.1916154026E-04      32   32    2         0.7559282454E-03      0.1409794608E-01
          0                10           1            29   32     1       0.1334496668E-04      40   24    2         0.7225190567E-03      0.1281829059E-01
                                                   Max.-Head-Change                         Max.-Flux-Residual
  Residual-Control   Outer-Iter.   Inner-Iter.     Column Row Layer    Maximum-Head-Change  Column Row Layer    Maximum-Flux-Residual          L2-NORM 
          0                11           1            32   31     1       0.1432073533E-04      42   22    2         0.6342136787E-03      0.1149767395E-01
          0                12           1            29   32     1       0.1065854389E-04      40   24    2         0.6059955471E-03      0.1046882611E-01
          0                13           1            32   31     1       0.1126098506E-04      42   22    2         0.5353368209E-03      0.9402068122E-02
          0                14           1            29   32     1       0.8628118757E-05      40   24    2         0.5098880187E-03      0.8559886023E-02

    ------------------------------------------------
       NWT REQUIRED           14 OUTER ITERATIONS 
       AND A TOTAL OF         14 INNER ITERATIONS.
    ------------------------------------------------

 OUTPUT CONTROL FOR STRESS PERIOD    1   TIME STEP  287
    SAVE HEAD FOR ALL LAYERS
 SOLVING FOR ZETA FOR LAYER     1 ZONE     2

     678 UPPER PART EQS.       666 LOWER PART EQS.    BAND WIDTH + 1 =   29
 STRESS PERIOD=  1 TIMESTEP=287 LAYER=  1 ZONE=  2 ACTIVE CELLS= 1344 NUMBER OF EQUATIONS=    1344
 SOLVING FOR ZETA FOR LAYER     2 ZONE     2

     457 UPPER PART EQS.       456 LOWER PART EQS.    BAND WIDTH + 1 =   30
 STRESS PERIOD=  1 TIMESTEP=287 LAYER=  2 ZONE=  2 ACTIVE CELLS=  913 NUMBER OF EQUATIONS=     913
 UBUDSV SAVING "      ZETASRF  1" ON UNIT 55 AT TIME STEP287, STRESS PERIOD    1

 HEAD WILL BE SAVED ON UNIT   51 AT END OF TIME STEP  287, STRESS PERIOD    1
 
 SOLVING FOR HEAD 
                                                   Max.-Head-Change                         Max.-Flux-Residual
  Residual-Control   Outer-Iter.   Inner-Iter.     Column Row Layer    Maximum-Head-Change  Column Row Layer    Maximum-Flux-Residual          L2-NORM 
          0                 1           1             8   33     1      -0.4109334491E-03      54   28    1        -0.3591971212E+00      0.2953641694E+01
          0                 2           1            23   49     2      -0.6209890755E-04      37   47    2        -0.9988454094E-02      0.1259551375E+00
          0                 3           1            37   26     1       0.4423535315E-04      27   22    1         0.2372439597E-02      0.5009412376E-01
          0                 4           1            32   29     1       0.3000932343E-04      33   27    2         0.1704490109E-02      0.2983362310E-01
          0                 5           1            31   31     2       0.3460548711E-04      31   29    2         0.1505393387E-02      0.2179992280E-01
          0                 6           1            30   31     1       0.2192342545E-04      33   31    2         0.1167358953E-02      0.1742003181E-01
          0                 7           1            31   31     2       0.2304351947E-04      32   32    2         0.9798149313E-03      0.1475304889E-01
          0                 8           1            30   31     1       0.1573138965E-04      34   30    2         0.7666429185E-03      0.1304657642E-01
          0                 9           1            31   31     2       0.1556495563E-04      32   32    2         0.6602034709E-03      0.1161427454E-01
          0                10           1            29   32     1       0.1191989350E-04      41   31    2         0.5706617571E-03      0.1057056477E-01
                                                   Max.-Head-Change                         Max.-Flux-Residual
  Residual-Control   Outer-Iter.   Inner-Iter.     Column Row Layer    Maximum-Head-Change  Column Row Layer    Maximum-Flux-Residual          L2-NORM 
          0                11           1            32   31     1       0.1136027661E-04      42   22    2         0.5086450194E-03      0.9501474531E-02
          0                12           1            29   32     1       0.9316317984E-05      40   24    2         0.4730448223E-03      0.8664776905E-02

    ------------------------------------------------
       NWT REQUIRED           12 OUTER ITERATIONS 
       AND A TOTAL OF         12 INNER ITERATIONS.
    ------------------------------------------------

 OUTPUT CONTROL FOR STRESS PERIOD    1   TIME STEP  288
    SAVE HEAD FOR ALL LAYERS
 SOLVING FOR ZETA FOR LAYER     1 ZONE     2

     678 UPPER PART EQS.       680 LOWER PART EQS.    BAND WIDTH + 1 =   25
 STRESS PERIOD=  1 TIMESTEP=288 LAYER=  1 ZONE=  2 ACTIVE CELLS= 1358 NUMBER OF EQUATIONS=    1358
 SOLVING FOR ZETA FOR LAYER     2 ZONE     2

     457 UPPER PART EQS.       456 LOWER PART EQS.    BAND WIDTH + 1 =   30
 STRESS PERIOD=  1 TIMESTEP=288 LAYER=  2 ZONE=  2 ACTIVE CELLS=  913 NUMBER OF EQUATIONS=     913
 UBUDSV SAVING "      ZETASRF  1" ON UNIT 55 AT TIME STEP288, STRESS PERIOD    1

 HEAD WILL BE SAVED ON UNIT   51 AT END OF TIME STEP  288, STRESS PERIOD    1
 
 SOLVING FOR HEAD 
                                                   Max.-Head-Change                         Max.-Flux-Residual
  Residual-Control   Outer-Iter.   Inner-Iter.     Column Row Layer    Maximum-Head-Change  Column Row Layer    Maximum-Flux-Residual          L2-NORM 
          0                 1           1             8   27     1      -0.4051580716E-03      54   27    1        -0.3612677160E+00      0.3329090953E+01
          0                 2           1            31   49     2      -0.5479993624E-04      31   49    2        -0.8872631027E-02      0.1145897804E+00
          0                 3           1            25   24     1       0.4376170430E-04      21   43    2         0.2234949869E-02      0.4441504030E-01
          0                 4           1            32   29     1       0.2837189849E-04      31   25    2         0.1612239453E-02      0.2828944217E-01
          0                 5           1            31   31     2       0.3632155062E-04      31   29    2         0.1449116374E-02      0.2257081627E-01
          0                 6           1            30   31     1       0.2250918683E-04      33   31    2         0.1169487763E-02      0.1940995132E-01
          0                 7           1            31   31     2       0.2545882869E-04      32   32    2         0.1007129158E-02      0.1712312792E-01
          0                 8           1            30   31     1       0.1706241380E-04      34   30    2         0.8216894481E-03      0.1548123175E-01
          0                 9           1            31   31     2       0.1746282179E-04      44   24    2         0.7246960761E-03      0.1388045046E-01
          0                10           1            29   32     1       0.1364605875E-04      40   24    2         0.6729372674E-03      0.1263574315E-01
                                                   Max.-Head-Change                         Max.-Flux-Residual
  Residual-Control   Outer-Iter.   Inner-Iter.     Column Row Layer    Maximum-Head-Change  Column Row Layer    Maximum-Flux-Residual          L2-NORM 
          0                11           1            32   31     1       0.1298223714E-04      44   24    2         0.6233639864E-03      0.1138494904E-01
          0                12           1            29   32     1       0.1104996107E-04      40   24    2         0.5691595210E-03      0.1033756185E-01
          0                13           1            32   31     1       0.1023100445E-04      44   24    2         0.5224706983E-03      0.9339245489E-02
          0                14           1            29   32     1       0.8966286085E-05      40   24    2         0.4820222880E-03      0.8464321115E-02

    ------------------------------------------------
       NWT REQUIRED           14 OUTER ITERATIONS 
       AND A TOTAL OF         14 INNER ITERATIONS.
    ------------------------------------------------

 OUTPUT CONTROL FOR STRESS PERIOD    1   TIME STEP  289
    SAVE HEAD FOR ALL LAYERS
 SOLVING FOR ZETA FOR LAYER     1 ZONE     2

     678 UPPER PART EQS.       650 LOWER PART EQS.    BAND WIDTH + 1 =   45
 STRESS PERIOD=  1 TIMESTEP=289 LAYER=  1 ZONE=  2 ACTIVE CELLS= 1328 NUMBER OF EQUATIONS=    1328
 SOLVING FOR ZETA FOR LAYER     2 ZONE     2

     465 UPPER PART EQS.       456 LOWER PART EQS.    BAND WIDTH + 1 =   32
 STRESS PERIOD=  1 TIMESTEP=289 LAYER=  2 ZONE=  2 ACTIVE CELLS=  921 NUMBER OF EQUATIONS=     921
 UBUDSV SAVING "      ZETASRF  1" ON UNIT 55 AT TIME STEP289, STRESS PERIOD    1

 HEAD WILL BE SAVED ON UNIT   51 AT END OF TIME STEP  289, STRESS PERIOD    1
 
 SOLVING FOR HEAD 
                                                   Max.-Head-Change                         Max.-Flux-Residual
  Residual-Control   Outer-Iter.   Inner-Iter.     Column Row Layer    Maximum-Head-Change  Column Row Layer    Maximum-Flux-Residual          L2-NORM 
          0                 1           1            37   46     2      -0.4511175861E-03      54   28    1        -0.3623708306E+00      0.3246825233E+01
          0                 2           1            39   49     2      -0.6005374728E-04      36   48    2        -0.9281327196E-02      0.1229456166E+00
          0                 3           1            37   24     1       0.4343529169E-04      27   22    1         0.2318702371E-02      0.4864491933E-01
          0                 4           1            32   29     1       0.2949497203E-04      31   25    2         0.1672772495E-02      0.2930451379E-01
          0                 5           1            31   31     2       0.3438671462E-04      31   29    2         0.1481597734E-02      0.2163486116E-01
          0                 6           1            30   31     1       0.2161387823E-04      33   31    2         0.1156855458E-02      0.1748108028E-01
          0                 7           1            31   31     2       0.2383658573E-04      32   32    2         0.9774203324E-03      0.1489023274E-01
          0                 8           1            30   31     1       0.1508320551E-04      33   31    2         0.7632970467E-03      0.1320194279E-01
          0                 9           1            31   31     2       0.1679831564E-04      32   32    2         0.6646553977E-03      0.1173664892E-01
          0                10           1            29   32     1       0.1118841850E-04      40   24    2         0.5969421286E-03      0.1069507759E-01
                                                   Max.-Head-Change                         Max.-Flux-Residual
  Residual-Control   Outer-Iter.   Inner-Iter.     Column Row Layer    Maximum-Head-Change  Column Row Layer    Maximum-Flux-Residual          L2-NORM 
          0                11           1            32   31     1       0.1238480027E-04      40   20    2         0.4977632461E-03      0.9558130354E-02
          0                12           1            29   32     1       0.8774810744E-05      40   24    2         0.5057367233E-03      0.8750261985E-02

    ------------------------------------------------
       NWT REQUIRED           12 OUTER ITERATIONS 
       AND A TOTAL OF         12 INNER ITERATIONS.
    ------------------------------------------------

 OUTPUT CONTROL FOR STRESS PERIOD    1   TIME STEP  290
    SAVE HEAD FOR ALL LAYERS
 SOLVING FOR ZETA FOR LAYER     1 ZONE     2

     660 UPPER PART EQS.       674 LOWER PART EQS.    BAND WIDTH + 1 =   33
 STRESS PERIOD=  1 TIMESTEP=290 LAYER=  1 ZONE=  2 ACTIVE CELLS= 1334 NUMBER OF EQUATIONS=    1334
 SOLVING FOR ZETA FOR LAYER     2 ZONE     2

     473 UPPER PART EQS.       460 LOWER PART EQS.    BAND WIDTH + 1 =   30
 STRESS PERIOD=  1 TIMESTEP=290 LAYER=  2 ZONE=  2 ACTIVE CELLS=  933 NUMBER OF EQUATIONS=     933
 UBUDSV SAVING "      ZETASRF  1" ON UNIT 55 AT TIME STEP290, STRESS PERIOD    1

 HEAD WILL BE SAVED ON UNIT   51 AT END OF TIME STEP  290, STRESS PERIOD    1
 
 SOLVING FOR HEAD 
                                                   Max.-Head-Change                         Max.-Flux-Residual
  Residual-Control   Outer-Iter.   Inner-Iter.     Column Row Layer    Maximum-Head-Change  Column Row Layer    Maximum-Flux-Residual          L2-NORM 
          0                 1           1            53   51     1       0.4149268422E-03      53   11    1         0.3870710654E+00      0.3427733147E+01
          0                 2           1            31   49     2      -0.5612642320E-04      31   49    2        -0.8996583553E-02      0.1182089544E+00
          0                 3           1            25   24     1       0.4609991571E-04      27   22    1         0.2369835639E-02      0.4787655455E-01
          0                 4           1            32   29     1       0.2967060745E-04      31   25    2         0.1712785408E-02      0.3031246608E-01
          0                 5           1            31   31     2       0.3903994070E-04      31   29    2         0.1534100886E-02      0.2373442839E-01
          0                 6           1            30   31     1       0.2271230591E-04      33   31    2         0.1230567708E-02      0.2010703359E-01
          0                 7           1            31   31     2       0.2877135919E-04      32   32    2         0.1067470673E-02      0.1758660752E-01
          0                 8           1            30   31     1       0.1630713597E-04      41   27    2         0.8901504574E-03      0.1576381773E-01
          0                 9           1            31   31     2       0.2036477648E-04      32   32    2         0.7572487449E-03      0.1405901110E-01
          0                10           1            29   32     1       0.1262206414E-04      40   24    2         0.7329374042E-03      0.1277570796E-01
                                                   Max.-Head-Change                         Max.-Flux-Residual
  Residual-Control   Outer-Iter.   Inner-Iter.     Column Row Layer    Maximum-Head-Change  Column Row Layer    Maximum-Flux-Residual          L2-NORM 
          0                11           1            32   31     1       0.1510747787E-04      38   30    2         0.5836761711E-03      0.1142348520E-01
          0                12           1            29   32     1       0.1016948492E-04      40   24    2         0.6213401797E-03      0.1040346930E-01
          0                13           1            32   31     1       0.1173176457E-04      42   22    2         0.4869251928E-03      0.9319989149E-02
          0                14           1            29   32     1       0.8321638184E-05      40   24    2         0.5254279758E-03      0.8487253767E-02

    ------------------------------------------------
       NWT REQUIRED           14 OUTER ITERATIONS 
       AND A TOTAL OF         14 INNER ITERATIONS.
    ------------------------------------------------

 OUTPUT CONTROL FOR STRESS PERIOD    1   TIME STEP  291
    SAVE HEAD FOR ALL LAYERS
 SOLVING FOR ZETA FOR LAYER     1 ZONE     2

     680 UPPER PART EQS.       668 LOWER PART EQS.    BAND WIDTH + 1 =   29
 STRESS PERIOD=  1 TIMESTEP=291 LAYER=  1 ZONE=  2 ACTIVE CELLS= 1348 NUMBER OF EQUATIONS=    1348
 SOLVING FOR ZETA FOR LAYER     2 ZONE     2

     473 UPPER PART EQS.       464 LOWER PART EQS.    BAND WIDTH + 1 =   28
 STRESS PERIOD=  1 TIMESTEP=291 LAYER=  2 ZONE=  2 ACTIVE CELLS=  937 NUMBER OF EQUATIONS=     937
 UBUDSV SAVING "      ZETASRF  1" ON UNIT 55 AT TIME STEP291, STRESS PERIOD    1

 HEAD WILL BE SAVED ON UNIT   51 AT END OF TIME STEP  291, STRESS PERIOD    1
 
 SOLVING FOR HEAD 
                                                   Max.-Head-Change                         Max.-Flux-Residual
  Residual-Control   Outer-Iter.   Inner-Iter.     Column Row Layer    Maximum-Head-Change  Column Row Layer    Maximum-Flux-Residual          L2-NORM 
          0                 1           1             8   33     1      -0.4213510898E-03      54   34    1        -0.3655857181E+00      0.3030711707E+01
          0                 2           1            39   49     2      -0.5695025642E-04      15   21    2        -0.8926470140E-02      0.1180662381E+00
          0                 3           1            36   25     1       0.4117488882E-04      27   22    1         0.2158477815E-02      0.4651397001E-01
          0                 4           1            32   29     1       0.2729031284E-04      30   26    2         0.1570606441E-02      0.2758514634E-01
          0                 5           1            31   31     2       0.3250882260E-04      31   29    2         0.1385460659E-02      0.1992698528E-01
          0                 6           1            30   31     1       0.1922106422E-04      33   31    2         0.1060432459E-02      0.1578946526E-01
          0                 7           1            31   31     2       0.2153033102E-04      32   32    2         0.8898398985E-03      0.1326144491E-01
          0                 8           1            30   31     1       0.1362497865E-04      33   31    2         0.6889333056E-03      0.1171133708E-01
          0                 9           1            31   31     2       0.1429860099E-04      32   32    2         0.5921753639E-03      0.1037544813E-01
          0                10           1            29   32     1       0.1044976773E-04      19   41    2         0.5585332324E-03      0.9476805395E-02
                                                   Max.-Head-Change                         Max.-Flux-Residual
  Residual-Control   Outer-Iter.   Inner-Iter.     Column Row Layer    Maximum-Head-Change  Column Row Layer    Maximum-Flux-Residual          L2-NORM 
          0                11           1            32   31     1       0.1018682143E-04      19   41    2         0.4903989586E-03      0.8486839050E-02
          0                12           1            29   32     1       0.8273451687E-05      19   41    2         0.4947248567E-03      0.7763909330E-02

    ------------------------------------------------
       NWT REQUIRED           12 OUTER ITERATIONS 
       AND A TOTAL OF         12 INNER ITERATIONS.
    ------------------------------------------------

 OUTPUT CONTROL FOR STRESS PERIOD    1   TIME STEP  292
    SAVE HEAD FOR ALL LAYERS
 SOLVING FOR ZETA FOR LAYER     1 ZONE     2

     668 UPPER PART EQS.       662 LOWER PART EQS.    BAND WIDTH + 1 =   31
 STRESS PERIOD=  1 TIMESTEP=292 LAYER=  1 ZONE=  2 ACTIVE CELLS= 1330 NUMBER OF EQUATIONS=    1330
 SOLVING FOR ZETA FOR LAYER     2 ZONE     2

     473 UPPER PART EQS.       468 LOWER PART EQS.    BAND WIDTH + 1 =   28
 STRESS PERIOD=  1 TIMESTEP=292 LAYER=  2 ZONE=  2 ACTIVE CELLS=  941 NUMBER OF EQUATIONS=     941
 UBUDSV SAVING "      ZETASRF  1" ON UNIT 55 AT TIME STEP292, STRESS PERIOD    1

 HEAD WILL BE SAVED ON UNIT   51 AT END OF TIME STEP  292, STRESS PERIOD    1
 
 SOLVING FOR HEAD 
                                                   Max.-Head-Change                         Max.-Flux-Residual
  Residual-Control   Outer-Iter.   Inner-Iter.     Column Row Layer    Maximum-Head-Change  Column Row Layer    Maximum-Flux-Residual          L2-NORM 
          0                 1           1             8   26     1      -0.4122479912E-03      54   27    1        -0.3674536550E+00      0.3180608192E+01
          0                 2           1            31   49     2      -0.5597915589E-04      31   49    2        -0.9034906645E-02      0.1162371394E+00
          0                 3           1            37   24     1       0.4507163223E-04      27   22    1         0.2325021753E-02      0.4593314012E-01
          0                 4           1            32   29     1       0.2914502690E-04      31   25    2         0.1673345538E-02      0.2939460972E-01
          0                 5           1            31   31     2       0.3825796976E-04      31   29    2         0.1498862950E-02      0.2339738788E-01
          0                 6           1            30   31     1       0.2266316085E-04      33   31    2         0.1208682753E-02      0.2005984421E-01
          0                 7           1            31   31     2       0.2791624771E-04      32   32    2         0.1051443594E-02      0.1763312928E-01
          0                 8           1            30   31     1       0.1658558060E-04      41   27    2         0.8915490880E-03      0.1589303989E-01
          0                 9           1            31   31     2       0.1967802136E-04      32   32    2         0.7540963419E-03      0.1418055832E-01
          0                10           1            29   32     1       0.1299556780E-04      41   27    2         0.7330316752E-03      0.1292076715E-01
                                                   Max.-Head-Change                         Max.-Flux-Residual
  Residual-Control   Outer-Iter.   Inner-Iter.     Column Row Layer    Maximum-Head-Change  Column Row Layer    Maximum-Flux-Residual          L2-NORM 
          0                11           1            32   31     1       0.1473085733E-04      38   30    2         0.5889639082E-03      0.1155537303E-01
          0                12           1            29   32     1       0.1048865521E-04      40   24    2         0.6206899275E-03      0.1054190714E-01
          0                13           1            32   31     1       0.1155698385E-04      42   22    2         0.4970502844E-03      0.9443078798E-02
          0                14           1            29   32     1       0.8557099997E-05      40   24    2         0.5255419246E-03      0.8612799029E-02

    ------------------------------------------------
       NWT REQUIRED           14 OUTER ITERATIONS 
       AND A TOTAL OF         14 INNER ITERATIONS.
    ------------------------------------------------

 OUTPUT CONTROL FOR STRESS PERIOD    1   TIME STEP  293
    SAVE HEAD FOR ALL LAYERS
 SOLVING FOR ZETA FOR LAYER     1 ZONE     2

     676 UPPER PART EQS.       662 LOWER PART EQS.    BAND WIDTH + 1 =   31
 STRESS PERIOD=  1 TIMESTEP=293 LAYER=  1 ZONE=  2 ACTIVE CELLS= 1338 NUMBER OF EQUATIONS=    1338
 SOLVING FOR ZETA FOR LAYER     2 ZONE     2

     473 UPPER PART EQS.       472 LOWER PART EQS.    BAND WIDTH + 1 =   30
 STRESS PERIOD=  1 TIMESTEP=293 LAYER=  2 ZONE=  2 ACTIVE CELLS=  945 NUMBER OF EQUATIONS=     945
 UBUDSV SAVING "      ZETASRF  1" ON UNIT 55 AT TIME STEP293, STRESS PERIOD    1

 HEAD WILL BE SAVED ON UNIT   51 AT END OF TIME STEP  293, STRESS PERIOD    1
 
 SOLVING FOR HEAD 
                                                   Max.-Head-Change                         Max.-Flux-Residual
  Residual-Control   Outer-Iter.   Inner-Iter.     Column Row Layer    Maximum-Head-Change  Column Row Layer    Maximum-Flux-Residual          L2-NORM 
          0                 1           1             8   33     1      -0.4268911881E-03      54   34    1        -0.3687944268E+00      0.3030201165E+01
          0                 2           1            39   49     2      -0.5906017041E-04      42   46    2        -0.8835508039E-02      0.1202027880E+00
          0                 3           1            37   26     1       0.4181998403E-04      27   22    1         0.2249853230E-02      0.4725145259E-01
          0                 4           1            32   29     1       0.2857131929E-04      31   25    2         0.1619659945E-02      0.2842842576E-01
          0                 5           1            31   31     2       0.3350137822E-04      31   29    2         0.1438678209E-02      0.2093131054E-01
          0                 6           1            30   31     1       0.2086129248E-04      33   31    2         0.1118120688E-02      0.1685889917E-01
          0                 7           1            31   31     2       0.2301140577E-04      32   32    2         0.9448100238E-03      0.1433621200E-01
          0                 8           1            30   31     1       0.1465523291E-04      33   31    2         0.7355417113E-03      0.1268058020E-01
          0                 9           1            31   31     2       0.1600103465E-04      32   32    2         0.6405809074E-03      0.1127204821E-01
          0                10           1            29   32     1       0.1095539213E-04      40   24    2         0.5678662118E-03      0.1024962306E-01
                                                   Max.-Head-Change                         Max.-Flux-Residual
  Residual-Control   Outer-Iter.   Inner-Iter.     Column Row Layer    Maximum-Head-Change  Column Row Layer    Maximum-Flux-Residual          L2-NORM 
          0                11           1            32   31     1       0.1173212723E-04      32   29    1         0.4727107304E-03      0.9174768607E-02
          0                12           1            29   32     1       0.8590604258E-05      40   24    2         0.4818728288E-03      0.8378938737E-02

    ------------------------------------------------
       NWT REQUIRED           12 OUTER ITERATIONS 
       AND A TOTAL OF         12 INNER ITERATIONS.
    ------------------------------------------------

 OUTPUT CONTROL FOR STRESS PERIOD    1   TIME STEP  294
    SAVE HEAD FOR ALL LAYERS
 SOLVING FOR ZETA FOR LAYER     1 ZONE     2

     664 UPPER PART EQS.       680 LOWER PART EQS.    BAND WIDTH + 1 =   35
 STRESS PERIOD=  1 TIMESTEP=294 LAYER=  1 ZONE=  2 ACTIVE CELLS= 1344 NUMBER OF EQUATIONS=    1344
 SOLVING FOR ZETA FOR LAYER     2 ZONE     2

     473 UPPER PART EQS.       472 LOWER PART EQS.    BAND WIDTH + 1 =   30
 STRESS PERIOD=  1 TIMESTEP=294 LAYER=  2 ZONE=  2 ACTIVE CELLS=  945 NUMBER OF EQUATIONS=     945
 UBUDSV SAVING "      ZETASRF  1" ON UNIT 55 AT TIME STEP294, STRESS PERIOD    1

 HEAD WILL BE SAVED ON UNIT   51 AT END OF TIME STEP  294, STRESS PERIOD    1
 
 SOLVING FOR HEAD 
                                                   Max.-Head-Change                         Max.-Flux-Residual
  Residual-Control   Outer-Iter.   Inner-Iter.     Column Row Layer    Maximum-Head-Change  Column Row Layer    Maximum-Flux-Residual          L2-NORM 
          0                 1           1            53   51     1       0.4173062531E-03      53   11    1         0.3899182618E+00      0.3393167236E+01
          0                 2           1            31   49     2      -0.5410939474E-04      31   49    2        -0.8880371781E-02      0.1132055540E+00
          0                 3           1            25   24     1       0.4272951593E-04      27   22    1         0.2158261251E-02      0.4477818097E-01
          0                 4           1            32   29     1       0.2749750517E-04      31   25    2         0.1580119454E-02      0.2811595786E-01
          0                 5           1            31   31     2       0.3583489575E-04      31   29    2         0.1419766693E-02      0.2199997397E-01
          0                 6           1            30   31     1       0.2136317919E-04      33   31    2         0.1141408795E-02      0.1866189169E-01
          0                 7           1            31   31     2       0.2609332293E-04      32   32    2         0.9867476494E-03      0.1633326034E-01
          0                 8           1            30   31     1       0.1544542935E-04      41   27    2         0.8105334502E-03      0.1469247591E-01
          0                 9           1            31   31     2       0.1845160701E-04      32   32    2         0.7005503578E-03      0.1310419177E-01
          0                10           1            29   32     1       0.1194749195E-04      40   24    2         0.6829719740E-03      0.1194724012E-01
                                                   Max.-Head-Change                         Max.-Flux-Residual
  Residual-Control   Outer-Iter.   Inner-Iter.     Column Row Layer    Maximum-Head-Change  Column Row Layer    Maximum-Flux-Residual          L2-NORM 
          0                11           1            32   31     1       0.1374786862E-04      18   38    2         0.5451255781E-03      0.1067438464E-01
          0                12           1            29   32     1       0.9592863372E-05      40   24    2         0.5797306801E-03      0.9747504365E-02

    ------------------------------------------------
       NWT REQUIRED           12 OUTER ITERATIONS 
       AND A TOTAL OF         12 INNER ITERATIONS.
    ------------------------------------------------

 OUTPUT CONTROL FOR STRESS PERIOD    1   TIME STEP  295
    SAVE HEAD FOR ALL LAYERS
 SOLVING FOR ZETA FOR LAYER     1 ZONE     2

     676 UPPER PART EQS.       650 LOWER PART EQS.    BAND WIDTH + 1 =   43
 STRESS PERIOD=  1 TIMESTEP=295 LAYER=  1 ZONE=  2 ACTIVE CELLS= 1326 NUMBER OF EQUATIONS=    1326
 SOLVING FOR ZETA FOR LAYER     2 ZONE     2

     473 UPPER PART EQS.       472 LOWER PART EQS.    BAND WIDTH + 1 =   30
 STRESS PERIOD=  1 TIMESTEP=295 LAYER=  2 ZONE=  2 ACTIVE CELLS=  945 NUMBER OF EQUATIONS=     945
 UBUDSV SAVING "      ZETASRF  1" ON UNIT 55 AT TIME STEP295, STRESS PERIOD    1

 HEAD WILL BE SAVED ON UNIT   51 AT END OF TIME STEP  295, STRESS PERIOD    1
 
 SOLVING FOR HEAD 
                                                   Max.-Head-Change                         Max.-Flux-Residual
  Residual-Control   Outer-Iter.   Inner-Iter.     Column Row Layer    Maximum-Head-Change  Column Row Layer    Maximum-Flux-Residual          L2-NORM 
          0                 1           1             8   33     1      -0.4322947754E-03      54   34    1        -0.3720724529E+00      0.2988952018E+01
          0                 2           1            39   49     2      -0.5888571859E-04      36   48    2        -0.8896502830E-02      0.1192119312E+00
          0                 3           1            37   24     1       0.4254782619E-04      27   22    1         0.2252148677E-02      0.4787168104E-01
          0                 4           1            32   29     1       0.2889300987E-04      31   25    2         0.1638887599E-02      0.2888464545E-01
          0                 5           1            31   31     2       0.3403860105E-04      31   29    2         0.1457096634E-02      0.2126783822E-01
          0                 6           1            30   31     1       0.2115001249E-04      33   31    2         0.1132709470E-02      0.1714434123E-01
          0                 7           1            31   31     2       0.2323863898E-04      32   32    2         0.9584151969E-03      0.1459786961E-01
          0                 8           1            30   31     1       0.1498371829E-04      33   31    2         0.7469122153E-03      0.1295660099E-01
          0                 9           1            31   31     2       0.1602817243E-04      32   32    2         0.6502203336E-03      0.1152352281E-01
          0                10           1            29   32     1       0.1126662339E-04      19   41    2         0.6082525860E-03      0.1051210637E-01
                                                   Max.-Head-Change                         Max.-Flux-Residual
  Residual-Control   Outer-Iter.   Inner-Iter.     Column Row Layer    Maximum-Head-Change  Column Row Layer    Maximum-Flux-Residual          L2-NORM 
          0                11           1            32   31     1       0.1176115537E-04      19   41    2         0.5474617145E-03      0.9407651249E-02
          0                12           1            29   32     1       0.8831278891E-05      19   41    2         0.5373947017E-03      0.8610438416E-02

    ------------------------------------------------
       NWT REQUIRED           12 OUTER ITERATIONS 
       AND A TOTAL OF         12 INNER ITERATIONS.
    ------------------------------------------------

 OUTPUT CONTROL FOR STRESS PERIOD    1   TIME STEP  296
    SAVE HEAD FOR ALL LAYERS
 SOLVING FOR ZETA FOR LAYER     1 ZONE     2

     668 UPPER PART EQS.       668 LOWER PART EQS.    BAND WIDTH + 1 =   25
 STRESS PERIOD=  1 TIMESTEP=296 LAYER=  1 ZONE=  2 ACTIVE CELLS= 1336 NUMBER OF EQUATIONS=    1336
 SOLVING FOR ZETA FOR LAYER     2 ZONE     2

     473 UPPER PART EQS.       472 LOWER PART EQS.    BAND WIDTH + 1 =   30
 STRESS PERIOD=  1 TIMESTEP=296 LAYER=  2 ZONE=  2 ACTIVE CELLS=  945 NUMBER OF EQUATIONS=     945
 UBUDSV SAVING "      ZETASRF  1" ON UNIT 55 AT TIME STEP296, STRESS PERIOD    1

 HEAD WILL BE SAVED ON UNIT   51 AT END OF TIME STEP  296, STRESS PERIOD    1
 
 SOLVING FOR HEAD 
                                                   Max.-Head-Change                         Max.-Flux-Residual
  Residual-Control   Outer-Iter.   Inner-Iter.     Column Row Layer    Maximum-Head-Change  Column Row Layer    Maximum-Flux-Residual          L2-NORM 
          0                 1           1            16   38     2      -0.4309369867E-03      54   27    1        -0.3737535901E+00      0.3329560634E+01
          0                 2           1            31   49     2      -0.5359988937E-04      26   14    2        -0.9431095934E-02      0.1140445194E+00
          0                 3           1            37   24     1       0.4432929189E-04      19   37    2         0.2517401890E-02      0.4454642698E-01
          0                 4           1            32   29     1       0.2863639557E-04      41   27    2         0.1681942648E-02      0.2864934280E-01
          0                 5           1            31   31     2       0.3772739113E-04      31   29    2         0.1467395930E-02      0.2298421517E-01
          0                 6           1            30   31     1       0.2234142861E-04      33   31    2         0.1180352645E-02      0.1981206462E-01
          0                 7           1            31   31     2       0.2709614090E-04      32   32    2         0.1028458689E-02      0.1746901659E-01
          0                 8           1            29   32     1       0.1657771412E-04      41   27    2         0.8998612335E-03      0.1578768998E-01
          0                 9           1            31   31     2       0.1900602309E-04      19   37    2         0.7688154282E-03      0.1410096240E-01
          0                10           1            29   32     1       0.1309646659E-04      41   27    2         0.7308095275E-03      0.1285675839E-01
                                                   Max.-Head-Change                         Max.-Flux-Residual
  Residual-Control   Outer-Iter.   Inner-Iter.     Column Row Layer    Maximum-Head-Change  Column Row Layer    Maximum-Flux-Residual          L2-NORM 
          0                11           1            32   31     1       0.1428421895E-04      19   37    2         0.6378553202E-03      0.1151105235E-01
          0                12           1            29   32     1       0.1057714804E-04      40   24    2         0.6069997901E-03      0.1049633377E-01
          0                13           1            32   31     1       0.1127191593E-04      19   37    2         0.5192132548E-03      0.9413179021E-02
          0                14           1            29   32     1       0.8612094656E-05      40   24    2         0.5158296538E-03      0.8578143750E-02

    ------------------------------------------------
       NWT REQUIRED           14 OUTER ITERATIONS 
       AND A TOTAL OF         14 INNER ITERATIONS.
    ------------------------------------------------

 OUTPUT CONTROL FOR STRESS PERIOD    1   TIME STEP  297
    SAVE HEAD FOR ALL LAYERS
 SOLVING FOR ZETA FOR LAYER     1 ZONE     2

     680 UPPER PART EQS.       660 LOWER PART EQS.    BAND WIDTH + 1 =   37
 STRESS PERIOD=  1 TIMESTEP=297 LAYER=  1 ZONE=  2 ACTIVE CELLS= 1340 NUMBER OF EQUATIONS=    1340
 SOLVING FOR ZETA FOR LAYER     2 ZONE     2

     473 UPPER PART EQS.       479 LOWER PART EQS.    BAND WIDTH + 1 =   30
 STRESS PERIOD=  1 TIMESTEP=297 LAYER=  2 ZONE=  2 ACTIVE CELLS=  952 NUMBER OF EQUATIONS=     952
 UBUDSV SAVING "      ZETASRF  1" ON UNIT 55 AT TIME STEP297, STRESS PERIOD    1

 HEAD WILL BE SAVED ON UNIT   51 AT END OF TIME STEP  297, STRESS PERIOD    1
 
 SOLVING FOR HEAD 
                                                   Max.-Head-Change                         Max.-Flux-Residual
  Residual-Control   Outer-Iter.   Inner-Iter.     Column Row Layer    Maximum-Head-Change  Column Row Layer    Maximum-Flux-Residual          L2-NORM 
          0                 1           1             8   33     1      -0.4375813726E-03      54   34    1        -0.3752799438E+00      0.3146357517E+01
          0                 2           1            39   49     2      -0.5690600142E-04      36   48    2        -0.1029775829E-01      0.1165279043E+00
          0                 3           1            36   25     1       0.3931372211E-04      27   22    1         0.2079104748E-02      0.4491769845E-01
          0                 4           1            32   29     1       0.2661165796E-04      31   25    2         0.1517620212E-02      0.2680650201E-01
          0                 5           1            31   31     2       0.3169622459E-04      31   29    2         0.1351794993E-02      0.1957306663E-01
          0                 6           1            30   31     1       0.1926270625E-04      33   31    2         0.1043805165E-02      0.1565467542E-01
          0                 7           1            31   31     2       0.2150755612E-04      32   32    2         0.8797009760E-03      0.1326208673E-01
          0                 8           1            30   31     1       0.1353997206E-04      33   31    2         0.6824673357E-03      0.1172329463E-01
          0                 9           1            31   31     2       0.1470002703E-04      32   32    2         0.5918159068E-03      0.1041204024E-01
          0                10           1            29   32     1       0.1023222253E-04      19   41    2         0.5499433570E-03      0.9483103806E-02
                                                   Max.-Head-Change                         Max.-Flux-Residual
  Residual-Control   Outer-Iter.   Inner-Iter.     Column Row Layer    Maximum-Head-Change  Column Row Layer    Maximum-Flux-Residual          L2-NORM 
          0                11           1            32   31     1       0.1060270363E-04      19   41    2         0.4954974940E-03      0.8487706847E-02
          0                12           1            29   32     1       0.8091178704E-05      19   41    2         0.4846024372E-03      0.7757122070E-02

    ------------------------------------------------
       NWT REQUIRED           12 OUTER ITERATIONS 
       AND A TOTAL OF         12 INNER ITERATIONS.
    ------------------------------------------------

 OUTPUT CONTROL FOR STRESS PERIOD    1   TIME STEP  298
    SAVE HEAD FOR ALL LAYERS
 SOLVING FOR ZETA FOR LAYER     1 ZONE     2

     660 UPPER PART EQS.       660 LOWER PART EQS.    BAND WIDTH + 1 =   29
 STRESS PERIOD=  1 TIMESTEP=298 LAYER=  1 ZONE=  2 ACTIVE CELLS= 1320 NUMBER OF EQUATIONS=    1320
 SOLVING FOR ZETA FOR LAYER     2 ZONE     2

     473 UPPER PART EQS.       480 LOWER PART EQS.    BAND WIDTH + 1 =   30
 STRESS PERIOD=  1 TIMESTEP=298 LAYER=  2 ZONE=  2 ACTIVE CELLS=  953 NUMBER OF EQUATIONS=     953
 UBUDSV SAVING "      ZETASRF  1" ON UNIT 55 AT TIME STEP298, STRESS PERIOD    1

 HEAD WILL BE SAVED ON UNIT   51 AT END OF TIME STEP  298, STRESS PERIOD    1
 
 SOLVING FOR HEAD 
                                                   Max.-Head-Change                         Max.-Flux-Residual
  Residual-Control   Outer-Iter.   Inner-Iter.     Column Row Layer    Maximum-Head-Change  Column Row Layer    Maximum-Flux-Residual          L2-NORM 
          0                 1           1             8   26     1      -0.4268357457E-03      53   11    1         0.3930520698E+00      0.3461229523E+01
          0                 2           1            31   49     2      -0.5462353027E-04      31   49    2        -0.8893019413E-02      0.1134907334E+00
          0                 3           1            37   24     1       0.4245838699E-04      27   22    1         0.2164002422E-02      0.4492762950E-01
          0                 4           1            32   29     1       0.2706624235E-04      31   25    2         0.1565425702E-02      0.2808809041E-01
          0                 5           1            31   31     2       0.3576111757E-04      31   29    2         0.1404774615E-02      0.2201001928E-01
          0                 6           1            30   31     1       0.2124012742E-04      33   31    2         0.1135806142E-02      0.1869181570E-01
          0                 7           1            31   31     2       0.2639071404E-04      32   32    2         0.9857010537E-03      0.1639556421E-01
          0                 8           1            30   31     1       0.1536268572E-04      41   27    2         0.8248938373E-03      0.1476526149E-01
          0                 9           1            31   31     2       0.1865585594E-04      32   32    2         0.7013601579E-03      0.1316794636E-01
          0                10           1            29   32     1       0.1192599059E-04      41   27    2         0.6792905946E-03      0.1201602810E-01
                                                   Max.-Head-Change                         Max.-Flux-Residual
  Residual-Control   Outer-Iter.   Inner-Iter.     Column Row Layer    Maximum-Head-Change  Column Row Layer    Maximum-Flux-Residual          L2-NORM 
          0                11           1            32   31     1       0.1384386242E-04      38   30    2         0.5426044860E-03      0.1072651971E-01
          0                12           1            29   32     1       0.9624059302E-05      40   24    2         0.5759926314E-03      0.9800356646E-02

    ------------------------------------------------
       NWT REQUIRED           12 OUTER ITERATIONS 
       AND A TOTAL OF         12 INNER ITERATIONS.
    ------------------------------------------------

 OUTPUT CONTROL FOR STRESS PERIOD    1   TIME STEP  299
    SAVE HEAD FOR ALL LAYERS
 SOLVING FOR ZETA FOR LAYER     1 ZONE     2

     672 UPPER PART EQS.       656 LOWER PART EQS.    BAND WIDTH + 1 =   33
 STRESS PERIOD=  1 TIMESTEP=299 LAYER=  1 ZONE=  2 ACTIVE CELLS= 1328 NUMBER OF EQUATIONS=    1328
 SOLVING FOR ZETA FOR LAYER     2 ZONE     2

     473 UPPER PART EQS.       480 LOWER PART EQS.    BAND WIDTH + 1 =   30
 STRESS PERIOD=  1 TIMESTEP=299 LAYER=  2 ZONE=  2 ACTIVE CELLS=  953 NUMBER OF EQUATIONS=     953
 UBUDSV SAVING "      ZETASRF  1" ON UNIT 55 AT TIME STEP299, STRESS PERIOD    1

 HEAD WILL BE SAVED ON UNIT   51 AT END OF TIME STEP  299, STRESS PERIOD    1
 
 SOLVING FOR HEAD 
                                                   Max.-Head-Change                         Max.-Flux-Residual
  Residual-Control   Outer-Iter.   Inner-Iter.     Column Row Layer    Maximum-Head-Change  Column Row Layer    Maximum-Flux-Residual          L2-NORM 
          0                 1           1             8   33     1      -0.4431103791E-03      54   34    1        -0.3785818328E+00      0.3065960203E+01
          0                 2           1            39   49     2      -0.5670685569E-04      36   48    2        -0.8693183616E-02      0.1162451228E+00
          0                 3           1            37   24     1       0.4080594251E-04      27   22    1         0.2138404004E-02      0.4617171935E-01
          0                 4           1            32   29     1       0.2749260403E-04      31   25    2         0.1566240650E-02      0.2769536527E-01
          0                 5           1            31   31     2       0.3265528168E-04      31   29    2         0.1396522563E-02      0.2031560548E-01
          0                 6           1            30   31     1       0.2017770051E-04      30   30    2         0.1080279234E-02      0.1631486969E-01
          0                 7           1            31   31     2       0.2197017550E-04      32   32    2         0.9118087322E-03      0.1385282919E-01
          0                 8           1            30   31     1       0.1448498920E-04      29   31    2         0.7104937376E-03      0.1226792416E-01
          0                 9           1            31   31     2       0.1481758052E-04      32   32    2         0.6161153948E-03      0.1091637213E-01
          0                10           1            29   32     1       0.1107511108E-04      19   41    2         0.5710786463E-03      0.9936295705E-02
                                                   Max.-Head-Change                         Max.-Flux-Residual
  Residual-Control   Outer-Iter.   Inner-Iter.     Column Row Layer    Maximum-Head-Change  Column Row Layer    Maximum-Flux-Residual          L2-NORM 
          0                11           1            32   31     1       0.1073051422E-04      19   41    2         0.5228291973E-03      0.8922805308E-02
          0                12           1            29   32     1       0.8737053309E-05      19   41    2         0.5026843389E-03      0.8134839705E-02

    ------------------------------------------------
       NWT REQUIRED           12 OUTER ITERATIONS 
       AND A TOTAL OF         12 INNER ITERATIONS.
    ------------------------------------------------

 OUTPUT CONTROL FOR STRESS PERIOD    1   TIME STEP  300
    SAVE HEAD FOR ALL LAYERS
 SOLVING FOR ZETA FOR LAYER     1 ZONE     2

     668 UPPER PART EQS.       671 LOWER PART EQS.    BAND WIDTH + 1 =   26
 STRESS PERIOD=  1 TIMESTEP=300 LAYER=  1 ZONE=  2 ACTIVE CELLS= 1339 NUMBER OF EQUATIONS=    1339
 SOLVING FOR ZETA FOR LAYER     2 ZONE     2

     473 UPPER PART EQS.       480 LOWER PART EQS.    BAND WIDTH + 1 =   30
 STRESS PERIOD=  1 TIMESTEP=300 LAYER=  2 ZONE=  2 ACTIVE CELLS=  953 NUMBER OF EQUATIONS=     953
 UBUDSV SAVING "      ZETASRF  1" ON UNIT 55 AT TIME STEP300, STRESS PERIOD    1

 HEAD WILL BE SAVED ON UNIT   51 AT END OF TIME STEP  300, STRESS PERIOD    1
 
 SOLVING FOR HEAD 
                                                   Max.-Head-Change                         Max.-Flux-Residual
  Residual-Control   Outer-Iter.   Inner-Iter.     Column Row Layer    Maximum-Head-Change  Column Row Layer    Maximum-Flux-Residual          L2-NORM 
          0                 1           1             8   26     1      -0.4312400666E-03       8   27    1        -0.3800799865E+00      0.3420432668E+01
          0                 2           1            31   49     2      -0.4993661503E-04      18   18    2        -0.9602046654E-02      0.1101003151E+00
          0                 3           1            37   24     1       0.4171296987E-04      42   22    2         0.2226235667E-02      0.4104889124E-01
          0                 4           1            32   29     1       0.2585659131E-04      40   24    2         0.1506962856E-02      0.2610955088E-01
          0                 5           1            32   32     2       0.3460223117E-04      32   32    2         0.1335554059E-02      0.2083394120E-01
          0                 6           1            31   32     1       0.1995258307E-04      33   31    2         0.1068836655E-02      0.1791803214E-01
          0                 7           1            31   31     2       0.2468382286E-04      32   32    2         0.9307685701E-03      0.1576324241E-01
          0                 8           1            30   31     1       0.1487600710E-04      40   24    2         0.8304474014E-03      0.1424263405E-01
          0                 9           1            32   31     1       0.1700844853E-04      32   32    2         0.6672132628E-03      0.1270868173E-01
          0                10           1            29   32     1       0.1189821299E-04      40   24    2         0.6943515589E-03      0.1158717202E-01
                                                   Max.-Head-Change                         Max.-Flux-Residual
  Residual-Control   Outer-Iter.   Inner-Iter.     Column Row Layer    Maximum-Head-Change  Column Row Layer    Maximum-Flux-Residual          L2-NORM 
          0                11           1            32   31     1       0.1257721792E-04      20   40    2         0.5657936921E-03      0.1038421669E-01
          0                12           1            29   32     1       0.9721307866E-05      40   24    2         0.5835136725E-03      0.9461722437E-02

    ------------------------------------------------
       NWT REQUIRED           12 OUTER ITERATIONS 
       AND A TOTAL OF         12 INNER ITERATIONS.
    ------------------------------------------------

 OUTPUT CONTROL FOR STRESS PERIOD    1   TIME STEP  301
    SAVE HEAD FOR ALL LAYERS
 SOLVING FOR ZETA FOR LAYER     1 ZONE     2

     672 UPPER PART EQS.       645 LOWER PART EQS.    BAND WIDTH + 1 =   44
 STRESS PERIOD=  1 TIMESTEP=301 LAYER=  1 ZONE=  2 ACTIVE CELLS= 1317 NUMBER OF EQUATIONS=    1317
 SOLVING FOR ZETA FOR LAYER     2 ZONE     2

     473 UPPER PART EQS.       488 LOWER PART EQS.    BAND WIDTH + 1 =   32
 STRESS PERIOD=  1 TIMESTEP=301 LAYER=  2 ZONE=  2 ACTIVE CELLS=  961 NUMBER OF EQUATIONS=     961
 UBUDSV SAVING "      ZETASRF  1" ON UNIT 55 AT TIME STEP301, STRESS PERIOD    1

 HEAD WILL BE SAVED ON UNIT   51 AT END OF TIME STEP  301, STRESS PERIOD    1
 
 SOLVING FOR HEAD 
                                                   Max.-Head-Change                         Max.-Flux-Residual
  Residual-Control   Outer-Iter.   Inner-Iter.     Column Row Layer    Maximum-Head-Change  Column Row Layer    Maximum-Flux-Residual          L2-NORM 
          0                 1           1             8   33     1      -0.4487950096E-03      54   34    1        -0.3818134672E+00      0.3231548251E+01
          0                 2           1            39   49     2      -0.5736527455E-04      36   48    2        -0.8799968571E-02      0.1178450821E+00
          0                 3           1            38   27     1       0.4027174739E-04      24   25    1         0.2075773372E-02      0.4584814637E-01
          0                 4           1            32   29     1       0.2794352573E-04      30   26    2         0.1570009046E-02      0.2773866649E-01
          0                 5           1            31   31     2       0.3287753101E-04      31   29    2         0.1411892770E-02      0.2062143475E-01
          0                 6           1            30   31     1       0.2078429970E-04      30   30    2         0.1103980299E-02      0.1674450870E-01
          0                 7           1            31   31     2       0.2250113594E-04      32   32    2         0.9323191239E-03      0.1430346365E-01
          0                 8           1            30   31     1       0.1490360030E-04      30   30    2         0.7317662805E-03      0.1269326510E-01
          0                 9           1            31   31     2       0.1535144481E-04      32   32    2         0.6361903077E-03      0.1131341285E-01
          0                10           1            29   32     1       0.1139429109E-04      40   24    2         0.5558096664E-03      0.1028784955E-01
                                                   Max.-Head-Change                         Max.-Flux-Residual
  Residual-Control   Outer-Iter.   Inner-Iter.     Column Row Layer    Maximum-Head-Change  Column Row Layer    Maximum-Flux-Residual          L2-NORM 
          0                11           1            32   31     1       0.1114654488E-04      41   19    2         0.4820785015E-03      0.9243002113E-02
          0                12           1            29   32     1       0.9031439423E-05      40   24    2         0.4720831865E-03      0.8419193437E-02

    ------------------------------------------------
       NWT REQUIRED           12 OUTER ITERATIONS 
       AND A TOTAL OF         12 INNER ITERATIONS.
    ------------------------------------------------

 OUTPUT CONTROL FOR STRESS PERIOD    1   TIME STEP  302
    SAVE HEAD FOR ALL LAYERS
 SOLVING FOR ZETA FOR LAYER     1 ZONE     2

     652 UPPER PART EQS.       668 LOWER PART EQS.    BAND WIDTH + 1 =   35
 STRESS PERIOD=  1 TIMESTEP=302 LAYER=  1 ZONE=  2 ACTIVE CELLS= 1320 NUMBER OF EQUATIONS=    1320
 SOLVING FOR ZETA FOR LAYER     2 ZONE     2

     473 UPPER PART EQS.       488 LOWER PART EQS.    BAND WIDTH + 1 =   32
 STRESS PERIOD=  1 TIMESTEP=302 LAYER=  2 ZONE=  2 ACTIVE CELLS=  961 NUMBER OF EQUATIONS=     961
 UBUDSV SAVING "      ZETASRF  1" ON UNIT 55 AT TIME STEP302, STRESS PERIOD    1

 HEAD WILL BE SAVED ON UNIT   51 AT END OF TIME STEP  302, STRESS PERIOD    1
 
 SOLVING FOR HEAD 
                                                   Max.-Head-Change                         Max.-Flux-Residual
  Residual-Control   Outer-Iter.   Inner-Iter.     Column Row Layer    Maximum-Head-Change  Column Row Layer    Maximum-Flux-Residual          L2-NORM 
          0                 1           1             8   26     1      -0.4363224575E-03      53   11    1         0.3963539617E+00      0.3556283428E+01
          0                 2           1            31   49     2      -0.5220878913E-04      31   49    2        -0.8622794844E-02      0.1104584598E+00
          0                 3           1            26   23     1       0.4108203648E-04      27   22    1         0.2081727694E-02      0.4263251728E-01
          0                 4           1            31   28     1       0.2553616031E-04      31   25    2         0.1494587893E-02      0.2654946263E-01
          0                 5           1            31   31     2       0.3409438507E-04      31   29    2         0.1331594456E-02      0.2087097512E-01
          0                 6           1            30   31     1       0.2022843662E-04      33   31    2         0.1071623419E-02      0.1777415678E-01
          0                 7           1            31   31     2       0.2446203528E-04      30   30    2         0.9275917961E-03      0.1562422348E-01
          0                 8           1            29   32     1       0.1495614251E-04      40   24    2         0.7495035866E-03      0.1409418024E-01
          0                 9           1            32   31     1       0.1696561634E-04      30   30    2         0.6619829765E-03      0.1259598459E-01
          0                10           1            29   32     1       0.1182177203E-04      40   24    2         0.6338059137E-03      0.1148627185E-01
                                                   Max.-Head-Change                         Max.-Flux-Residual
  Residual-Control   Outer-Iter.   Inner-Iter.     Column Row Layer    Maximum-Head-Change  Column Row Layer    Maximum-Flux-Residual          L2-NORM 
          0                11           1            32   31     1       0.1250816868E-04      18   30    2         0.5315172554E-03      0.1029648759E-01
          0                12           1            29   32     1       0.9628839076E-05      40   24    2         0.5366798630E-03      0.9382928312E-02

    ------------------------------------------------
       NWT REQUIRED           12 OUTER ITERATIONS 
       AND A TOTAL OF         12 INNER ITERATIONS.
    ------------------------------------------------

 OUTPUT CONTROL FOR STRESS PERIOD    1   TIME STEP  303
    SAVE HEAD FOR ALL LAYERS
 SOLVING FOR ZETA FOR LAYER     1 ZONE     2

     668 UPPER PART EQS.       651 LOWER PART EQS.    BAND WIDTH + 1 =   34
 STRESS PERIOD=  1 TIMESTEP=303 LAYER=  1 ZONE=  2 ACTIVE CELLS= 1319 NUMBER OF EQUATIONS=    1319
 SOLVING FOR ZETA FOR LAYER     2 ZONE     2

     473 UPPER PART EQS.       488 LOWER PART EQS.    BAND WIDTH + 1 =   32
 STRESS PERIOD=  1 TIMESTEP=303 LAYER=  2 ZONE=  2 ACTIVE CELLS=  961 NUMBER OF EQUATIONS=     961
 UBUDSV SAVING "      ZETASRF  1" ON UNIT 55 AT TIME STEP303, STRESS PERIOD    1

 HEAD WILL BE SAVED ON UNIT   51 AT END OF TIME STEP  303, STRESS PERIOD    1
 
 SOLVING FOR HEAD 
                                                   Max.-Head-Change                         Max.-Flux-Residual
  Residual-Control   Outer-Iter.   Inner-Iter.     Column Row Layer    Maximum-Head-Change  Column Row Layer    Maximum-Flux-Residual          L2-NORM 
          0                 1           1             8   33     1      -0.4540773666E-03       8   28    1        -0.3851300302E+00      0.3155403944E+01
          0                 2           1            39   49     2      -0.5836034110E-04      36   48    2        -0.8945060547E-02      0.1172257876E+00
          0                 3           1            37   24     1       0.4055028828E-04      27   22    1         0.2138419204E-02      0.4634513683E-01
          0                 4           1            32   29     1       0.2729563148E-04      31   25    2         0.1550699669E-02      0.2773347374E-01
          0                 5           1            31   31     2       0.3232269967E-04      32   32    2         0.1385816716E-02      0.2029740523E-01
          0                 6           1            31   31     2       0.2014777734E-04      33   31    2         0.1078247352E-02      0.1629895834E-01
          0                 7           1            31   31     2       0.2196162357E-04      32   32    2         0.9136105929E-03      0.1382366047E-01
          0                 8           1            30   31     1       0.1442129358E-04      34   30    2         0.7096145903E-03      0.1224353165E-01
          0                 9           1            31   31     2       0.1492542213E-04      32   32    2         0.6184573205E-03      0.1088253528E-01
          0                10           1            29   32     1       0.1095669426E-04      40   24    2         0.5361513440E-03      0.9912802625E-02
                                                   Max.-Head-Change                         Max.-Flux-Residual
  Residual-Control   Outer-Iter.   Inner-Iter.     Column Row Layer    Maximum-Head-Change  Column Row Layer    Maximum-Flux-Residual          L2-NORM 
          0                11           1            32   31     1       0.1083938189E-04      41   19    2         0.4714735332E-03      0.8888394115E-02
          0                12           1            29   32     1       0.8628739092E-05      40   24    2         0.4540642595E-03      0.8113985378E-02

    ------------------------------------------------
       NWT REQUIRED           12 OUTER ITERATIONS 
       AND A TOTAL OF         12 INNER ITERATIONS.
    ------------------------------------------------

 OUTPUT CONTROL FOR STRESS PERIOD    1   TIME STEP  304
    SAVE HEAD FOR ALL LAYERS
 SOLVING FOR ZETA FOR LAYER     1 ZONE     2

     660 UPPER PART EQS.       657 LOWER PART EQS.    BAND WIDTH + 1 =   28
 STRESS PERIOD=  1 TIMESTEP=304 LAYER=  1 ZONE=  2 ACTIVE CELLS= 1317 NUMBER OF EQUATIONS=    1317
 SOLVING FOR ZETA FOR LAYER     2 ZONE     2

     473 UPPER PART EQS.       488 LOWER PART EQS.    BAND WIDTH + 1 =   32
 STRESS PERIOD=  1 TIMESTEP=304 LAYER=  2 ZONE=  2 ACTIVE CELLS=  961 NUMBER OF EQUATIONS=     961
 UBUDSV SAVING "      ZETASRF  1" ON UNIT 55 AT TIME STEP304, STRESS PERIOD    1

 HEAD WILL BE SAVED ON UNIT   51 AT END OF TIME STEP  304, STRESS PERIOD    1
 
 SOLVING FOR HEAD 
                                                   Max.-Head-Change                         Max.-Flux-Residual
  Residual-Control   Outer-Iter.   Inner-Iter.     Column Row Layer    Maximum-Head-Change  Column Row Layer    Maximum-Flux-Residual          L2-NORM 
          0                 1           1             8   26     1      -0.4422051733E-03      54   27    1        -0.3864720664E+00      0.3309949212E+01
          0                 2           1            11   31     2      -0.5099656604E-04      20   16    2        -0.8054509938E-02      0.1083620849E+00
          0                 3           1            24   25     1       0.4092121663E-04      24   25    1         0.2028991821E-02      0.4087939421E-01
          0                 4           1            32   29     1       0.2575934248E-04      30   26    2         0.1449222821E-02      0.2633503927E-01
          0                 5           1            31   31     2       0.3496322400E-04      31   29    2         0.1340210609E-02      0.2126021156E-01
          0                 6           1            30   31     1       0.2031791561E-04      30   30    2         0.1079103238E-02      0.1842409762E-01
          0                 7           1            31   31     2       0.2562600951E-04      32   32    2         0.9467375980E-03      0.1625490759E-01
          0                 8           1            29   32     1       0.1497942909E-04      41   27    2         0.8030099633E-03      0.1471089931E-01
          0                 9           1            31   31     2       0.1808188799E-04      32   32    2         0.6857338873E-03      0.1311156255E-01
          0                10           1            29   32     1       0.1185297443E-04      40   24    2         0.6619808480E-03      0.1196307632E-01
                                                   Max.-Head-Change                         Max.-Flux-Residual
  Residual-Control   Outer-Iter.   Inner-Iter.     Column Row Layer    Maximum-Head-Change  Column Row Layer    Maximum-Flux-Residual          L2-NORM 
          0                11           1            32   31     1       0.1348156079E-04      44   24    2         0.5534712987E-03      0.1068609590E-01
          0                12           1            29   32     1       0.9652250863E-05      40   24    2         0.5612186046E-03      0.9750018587E-02

    ------------------------------------------------
       NWT REQUIRED           12 OUTER ITERATIONS 
       AND A TOTAL OF         12 INNER ITERATIONS.
    ------------------------------------------------

 OUTPUT CONTROL FOR STRESS PERIOD    1   TIME STEP  305
    SAVE HEAD FOR ALL LAYERS
 SOLVING FOR ZETA FOR LAYER     1 ZONE     2

     662 UPPER PART EQS.       652 LOWER PART EQS.    BAND WIDTH + 1 =   27
 STRESS PERIOD=  1 TIMESTEP=305 LAYER=  1 ZONE=  2 ACTIVE CELLS= 1314 NUMBER OF EQUATIONS=    1314
 SOLVING FOR ZETA FOR LAYER     2 ZONE     2

     473 UPPER PART EQS.       488 LOWER PART EQS.    BAND WIDTH + 1 =   32
 STRESS PERIOD=  1 TIMESTEP=305 LAYER=  2 ZONE=  2 ACTIVE CELLS=  961 NUMBER OF EQUATIONS=     961
 UBUDSV SAVING "      ZETASRF  1" ON UNIT 55 AT TIME STEP305, STRESS PERIOD    1

 HEAD WILL BE SAVED ON UNIT   51 AT END OF TIME STEP  305, STRESS PERIOD    1
 
 SOLVING FOR HEAD 
                                                   Max.-Head-Change                         Max.-Flux-Residual
  Residual-Control   Outer-Iter.   Inner-Iter.     Column Row Layer    Maximum-Head-Change  Column Row Layer    Maximum-Flux-Residual          L2-NORM 
          0                 1           1            33    8     1      -0.4606254197E-03      54   34    1        -0.3885434281E+00      0.3430639921E+01
          0                 2           1            39   49     2      -0.5682138438E-04      35   13    2        -0.9085860988E-02      0.1151055905E+00
          0                 3           1            34   23     1       0.4108886579E-04      28   21    1         0.2200084913E-02      0.4478294808E-01
          0                 4           1            31   28     1       0.2557693181E-04      31   25    2         0.1511434970E-02      0.2633322098E-01
          0                 5           1            31   31     2       0.3084632099E-04      31   29    2         0.1300885863E-02      0.1922513486E-01
          0                 6           1            31   31     2       0.1892365447E-04      32   32    2         0.1019287758E-02      0.1543153133E-01
          0                 7           1            31   31     2       0.2069797470E-04      30   30    2         0.8542284650E-03      0.1312510800E-01
          0                 8           1            30   31     1       0.1371330171E-04      33   31    2         0.6753592488E-03      0.1165800501E-01
          0                 9           1            32   31     1       0.1377009457E-04      30   30    2         0.5779830708E-03      0.1037987740E-01
          0                10           1            30   31     1       0.1058760134E-04      21   43    2         0.5115724313E-03      0.9461023007E-02
          0                11           1            32   31     1       0.9942555130E-05      21   43    2         0.4822863634E-03      0.8505561338E-02

    ------------------------------------------------
       NWT REQUIRED           11 OUTER ITERATIONS 
       AND A TOTAL OF         11 INNER ITERATIONS.
    ------------------------------------------------

 OUTPUT CONTROL FOR STRESS PERIOD    1   TIME STEP  306
    SAVE HEAD FOR ALL LAYERS
 SOLVING FOR ZETA FOR LAYER     1 ZONE     2

     650 UPPER PART EQS.       667 LOWER PART EQS.    BAND WIDTH + 1 =   38
 STRESS PERIOD=  1 TIMESTEP=306 LAYER=  1 ZONE=  2 ACTIVE CELLS= 1317 NUMBER OF EQUATIONS=    1317
 SOLVING FOR ZETA FOR LAYER     2 ZONE     2

     481 UPPER PART EQS.       488 LOWER PART EQS.    BAND WIDTH + 1 =   32
 STRESS PERIOD=  1 TIMESTEP=306 LAYER=  2 ZONE=  2 ACTIVE CELLS=  969 NUMBER OF EQUATIONS=     969
 UBUDSV SAVING "      ZETASRF  1" ON UNIT 55 AT TIME STEP306, STRESS PERIOD    1

 HEAD WILL BE SAVED ON UNIT   51 AT END OF TIME STEP  306, STRESS PERIOD    1
 
 SOLVING FOR HEAD 
                                                   Max.-Head-Change                         Max.-Flux-Residual
  Residual-Control   Outer-Iter.   Inner-Iter.     Column Row Layer    Maximum-Head-Change  Column Row Layer    Maximum-Flux-Residual          L2-NORM 
          0                 1           1             8   26     1      -0.4471953095E-03       8   35    1        -0.3896826668E+00      0.3414538209E+01
          0                 2           1            31   49     2      -0.5249364835E-04      31   49    2        -0.8897066348E-02      0.1110334494E+00
          0                 3           1            38   25     1       0.4222515303E-04      23   22    1         0.2138973920E-02      0.4289420656E-01
          0                 4           1            33   28     1       0.2789048730E-04      35   37    2         0.1559165972E-02      0.2826078732E-01
          0                 5           1            31   31     2       0.3723223852E-04      32   32    2         0.1428344323E-02      0.2323718434E-01
          0                 6           1            30   31     1       0.2243709556E-04      34   30    2         0.1162888466E-02      0.2032227702E-01
          0                 7           1            31   31     2       0.2776648477E-04      32   32    2         0.1029645495E-02      0.1802181211E-01
          0                 8           1            29   32     1       0.1637299170E-04      41   27    2         0.8550624138E-03      0.1630177620E-01
          0                 9           1            31   31     2       0.2044429532E-04      32   32    2         0.7579613348E-03      0.1454972414E-01
          0                10           1            29   32     1       0.1268321435E-04      40   24    2         0.7213565036E-03      0.1324650778E-01
                                                   Max.-Head-Change                         Max.-Flux-Residual
  Residual-Control   Outer-Iter.   Inner-Iter.     Column Row Layer    Maximum-Head-Change  Column Row Layer    Maximum-Flux-Residual          L2-NORM 
          0                11           1            32   31     1       0.1574916773E-04      44   24    2         0.6180916286E-03      0.1182292979E-01
          0                12           1            29   32     1       0.1013328901E-04      40   24    2         0.6144872518E-03      0.1077685252E-01
          0                13           1            32   31     1       0.1250953290E-04      44   24    2         0.5093615206E-03      0.9622147086E-02
          0                14           1            29   32     1       0.8217761329E-05      40   24    2         0.5209412730E-03      0.8772657804E-02

    ------------------------------------------------
       NWT REQUIRED           14 OUTER ITERATIONS 
       AND A TOTAL OF         14 INNER ITERATIONS.
    ------------------------------------------------

 OUTPUT CONTROL FOR STRESS PERIOD    1   TIME STEP  307
    SAVE HEAD FOR ALL LAYERS
 SOLVING FOR ZETA FOR LAYER     1 ZONE     2

     660 UPPER PART EQS.       645 LOWER PART EQS.    BAND WIDTH + 1 =   36
 STRESS PERIOD=  1 TIMESTEP=307 LAYER=  1 ZONE=  2 ACTIVE CELLS= 1305 NUMBER OF EQUATIONS=    1305
 SOLVING FOR ZETA FOR LAYER     2 ZONE     2

     481 UPPER PART EQS.       488 LOWER PART EQS.    BAND WIDTH + 1 =   32
 STRESS PERIOD=  1 TIMESTEP=307 LAYER=  2 ZONE=  2 ACTIVE CELLS=  969 NUMBER OF EQUATIONS=     969
 UBUDSV SAVING "      ZETASRF  1" ON UNIT 55 AT TIME STEP307, STRESS PERIOD    1

 HEAD WILL BE SAVED ON UNIT   51 AT END OF TIME STEP  307, STRESS PERIOD    1
 
 SOLVING FOR HEAD 
                                                   Max.-Head-Change                         Max.-Flux-Residual
  Residual-Control   Outer-Iter.   Inner-Iter.     Column Row Layer    Maximum-Head-Change  Column Row Layer    Maximum-Flux-Residual          L2-NORM 
          0                 1           1             8   33     1      -0.4653330209E-03      53   11    1         0.4065780533E+00      0.3526308653E+01
          0                 2           1            40   48     2      -0.5507245492E-04      41   47    2        -0.8575178182E-02      0.1132633810E+00
          0                 3           1            38   27     1       0.3837585579E-04      51   42    1        -0.2007348863E-02      0.4477136994E-01
          0                 4           1            32   29     1       0.2420326289E-04      33   27    2         0.1409730104E-02      0.2599889059E-01
          0                 5           1            31   31     2       0.3047536777E-04      31   29    2         0.1266453034E-02      0.1836465977E-01
          0                 6           1            30   31     1       0.1674095922E-04      30   30    2         0.9581150562E-03      0.1424058984E-01
          0                 7           1            31   31     2       0.2028144856E-04      32   32    2         0.8065071478E-03      0.1176360556E-01
          0                 8           1            30   31     1       0.1173799112E-04      30   30    2         0.6114713443E-03      0.1030532578E-01
          0                 9           1            31   31     2       0.1293487931E-04      32   32    2         0.5284368264E-03      0.9061556402E-02
          0                10           1            29   32     1       0.9291409259E-05      18   22    2         0.4626765619E-03      0.8289889952E-02

    ------------------------------------------------
       NWT REQUIRED           10 OUTER ITERATIONS 
       AND A TOTAL OF         10 INNER ITERATIONS.
    ------------------------------------------------

 OUTPUT CONTROL FOR STRESS PERIOD    1   TIME STEP  308
    SAVE HEAD FOR ALL LAYERS
 SOLVING FOR ZETA FOR LAYER     1 ZONE     2

     654 UPPER PART EQS.       660 LOWER PART EQS.    BAND WIDTH + 1 =   29
 STRESS PERIOD=  1 TIMESTEP=308 LAYER=  1 ZONE=  2 ACTIVE CELLS= 1314 NUMBER OF EQUATIONS=    1314
 SOLVING FOR ZETA FOR LAYER     2 ZONE     2

     481 UPPER PART EQS.       488 LOWER PART EQS.    BAND WIDTH + 1 =   32
 STRESS PERIOD=  1 TIMESTEP=308 LAYER=  2 ZONE=  2 ACTIVE CELLS=  969 NUMBER OF EQUATIONS=     969
 UBUDSV SAVING "      ZETASRF  1" ON UNIT 55 AT TIME STEP308, STRESS PERIOD    1

 HEAD WILL BE SAVED ON UNIT   51 AT END OF TIME STEP  308, STRESS PERIOD    1
 
 SOLVING FOR HEAD 
                                                   Max.-Head-Change                         Max.-Flux-Residual
  Residual-Control   Outer-Iter.   Inner-Iter.     Column Row Layer    Maximum-Head-Change  Column Row Layer    Maximum-Flux-Residual          L2-NORM 
          0                 1           1             8   26     1      -0.4513239524E-03      54   27    1        -0.3930248613E+00      0.3386843548E+01
          0                 2           1            31   49     2      -0.5643343849E-04      31   49    2        -0.9595710773E-02      0.1087569403E+00
          0                 3           1            36   23     1       0.4080282555E-04      39   42    1         0.2113296173E-02      0.4069585897E-01
          0                 4           1            32   27     1       0.2531405777E-04      31   25    2         0.1466924455E-02      0.2596894813E-01
          0                 5           1            31   31     2       0.3338903404E-04      31   29    2         0.1290066613E-02      0.2097633581E-01
          0                 6           1            31   31     2       0.2049587909E-04      33   31    2         0.1061938731E-02      0.1822608729E-01
          0                 7           1            31   31     2       0.2401433202E-04      32   32    2         0.9223530237E-03      0.1611786639E-01
          0                 8           1            30   31     1       0.1552901329E-04      33   31    2         0.7591921635E-03      0.1459602569E-01
          0                 9           1            32   31     1       0.1683408978E-04      30   30    2         0.6709650876E-03      0.1305384118E-01
          0                10           1            29   32     1       0.1239512229E-04      40   24    2         0.6326041345E-03      0.1189164713E-01
                                                   Max.-Head-Change                         Max.-Flux-Residual
  Residual-Control   Outer-Iter.   Inner-Iter.     Column Row Layer    Maximum-Head-Change  Column Row Layer    Maximum-Flux-Residual          L2-NORM 
          0                11           1            32   31     1       0.1265015679E-04      44   24    2         0.5595223744E-03      0.1067388798E-01
          0                12           1            29   32     1       0.1007355977E-04      40   24    2         0.5361741502E-03      0.9714945703E-02
          0                13           1            32   31     1       0.9965741246E-05      44   24    2         0.4669857850E-03      0.8740855746E-02

    ------------------------------------------------
       NWT REQUIRED           13 OUTER ITERATIONS 
       AND A TOTAL OF         13 INNER ITERATIONS.
    ------------------------------------------------

 OUTPUT CONTROL FOR STRESS PERIOD    1   TIME STEP  309
    SAVE HEAD FOR ALL LAYERS
 SOLVING FOR ZETA FOR LAYER     1 ZONE     2

     658 UPPER PART EQS.       645 LOWER PART EQS.    BAND WIDTH + 1 =   30
 STRESS PERIOD=  1 TIMESTEP=309 LAYER=  1 ZONE=  2 ACTIVE CELLS= 1303 NUMBER OF EQUATIONS=    1303
 SOLVING FOR ZETA FOR LAYER     2 ZONE     2

     481 UPPER PART EQS.       488 LOWER PART EQS.    BAND WIDTH + 1 =   32
 STRESS PERIOD=  1 TIMESTEP=309 LAYER=  2 ZONE=  2 ACTIVE CELLS=  969 NUMBER OF EQUATIONS=     969
 UBUDSV SAVING "      ZETASRF  1" ON UNIT 55 AT TIME STEP309, STRESS PERIOD    1

 HEAD WILL BE SAVED ON UNIT   51 AT END OF TIME STEP  309, STRESS PERIOD    1
 
 SOLVING FOR HEAD 
                                                   Max.-Head-Change                         Max.-Flux-Residual
  Residual-Control   Outer-Iter.   Inner-Iter.     Column Row Layer    Maximum-Head-Change  Column Row Layer    Maximum-Flux-Residual          L2-NORM 
          0                 1           1             8   33     1      -0.4708239326E-03       8   28    1        -0.3951374018E+00      0.3275906970E+01
          0                 2           1            23   49     2      -0.5824832649E-04      41   47    2        -0.8588785394E-02      0.1147762106E+00
          0                 3           1            26   23     1       0.3860828836E-04      28   21    1         0.2086869231E-02      0.4486675517E-01
          0                 4           1            32   29     1       0.2579781196E-04      31   25    2         0.1469832814E-02      0.2652913220E-01
          0                 5           1            31   31     2       0.3066659499E-04      32   32    2         0.1312191842E-02      0.1934613551E-01
          0                 6           1            30   31     1       0.1922396609E-04      30   30    2         0.1025382025E-02      0.1549244629E-01
          0                 7           1            31   31     2       0.2056775015E-04      32   32    2         0.8654238884E-03      0.1314788398E-01
          0                 8           1            30   31     1       0.1402996942E-04      30   30    2         0.6770065885E-03      0.1164614690E-01
          0                 9           1            31   31     2       0.1361595866E-04      32   32    2         0.5843797605E-03      0.1037331505E-01
          0                10           1            29   32     1       0.1087221906E-04      34   30    2         0.4881494561E-03      0.9432909662E-02
          0                11           1            32   31     1       0.9771291781E-05      23   45    2         0.4471912846E-03      0.8498828537E-02

    ------------------------------------------------
       NWT REQUIRED           11 OUTER ITERATIONS 
       AND A TOTAL OF         11 INNER ITERATIONS.
    ------------------------------------------------

 OUTPUT CONTROL FOR STRESS PERIOD    1   TIME STEP  310
    SAVE HEAD FOR ALL LAYERS
 SOLVING FOR ZETA FOR LAYER     1 ZONE     2

     660 UPPER PART EQS.       657 LOWER PART EQS.    BAND WIDTH + 1 =   28
 STRESS PERIOD=  1 TIMESTEP=310 LAYER=  1 ZONE=  2 ACTIVE CELLS= 1317 NUMBER OF EQUATIONS=    1317
 SOLVING FOR ZETA FOR LAYER     2 ZONE     2

     481 UPPER PART EQS.       488 LOWER PART EQS.    BAND WIDTH + 1 =   32
 STRESS PERIOD=  1 TIMESTEP=310 LAYER=  2 ZONE=  2 ACTIVE CELLS=  969 NUMBER OF EQUATIONS=     969
 UBUDSV SAVING "      ZETASRF  1" ON UNIT 55 AT TIME STEP310, STRESS PERIOD    1

 HEAD WILL BE SAVED ON UNIT   51 AT END OF TIME STEP  310, STRESS PERIOD    1
 
 SOLVING FOR HEAD 
                                                   Max.-Head-Change                         Max.-Flux-Residual
  Residual-Control   Outer-Iter.   Inner-Iter.     Column Row Layer    Maximum-Head-Change  Column Row Layer    Maximum-Flux-Residual          L2-NORM 
          0                 1           1             8   26     1      -0.4577366676E-03      54   35    1        -0.3962004709E+00      0.3426942465E+01
          0                 2           1            11   31     2      -0.5062257636E-04      31   49    2        -0.8193722837E-02      0.1057416570E+00
          0                 3           1            24   25     1       0.4032434982E-04      24   25    1         0.1999747968E-02      0.3974354902E-01
          0                 4           1            32   29     1       0.2498171651E-04      29   27    2         0.1401368586E-02      0.2579045955E-01
          0                 5           1            31   31     2       0.3467410754E-04      31   29    2         0.1306884552E-02      0.2107027013E-01
          0                 6           1            30   31     1       0.1990484763E-04      29   31    2         0.1059195678E-02      0.1836016948E-01
          0                 7           1            31   31     2       0.2588598174E-04      32   32    2         0.9334712163E-03      0.1623347972E-01
          0                 8           1            29   32     1       0.1450658745E-04      42   30    2         0.7763689955E-03      0.1468745721E-01
          0                 9           1            31   31     2       0.1866813348E-04      32   32    2         0.6818992721E-03      0.1307254649E-01
          0                10           1            29   32     1       0.1136625275E-04      41   27    2         0.6277505818E-03      0.1191754858E-01
                                                   Max.-Head-Change                         Max.-Flux-Residual
  Residual-Control   Outer-Iter.   Inner-Iter.     Column Row Layer    Maximum-Head-Change  Column Row Layer    Maximum-Flux-Residual          L2-NORM 
          0                11           1            32   31     1       0.1405548376E-04      32   32    2         0.5279516097E-03      0.1061698801E-01
          0                12           1            29   32     1       0.9200967689E-05      41   27    2         0.5213205712E-03      0.9688149862E-02

    ------------------------------------------------
       NWT REQUIRED           12 OUTER ITERATIONS 
       AND A TOTAL OF         12 INNER ITERATIONS.
    ------------------------------------------------

 OUTPUT CONTROL FOR STRESS PERIOD    1   TIME STEP  311
    SAVE HEAD FOR ALL LAYERS
 SOLVING FOR ZETA FOR LAYER     1 ZONE     2

     660 UPPER PART EQS.       638 LOWER PART EQS.    BAND WIDTH + 1 =   39
 STRESS PERIOD=  1 TIMESTEP=311 LAYER=  1 ZONE=  2 ACTIVE CELLS= 1298 NUMBER OF EQUATIONS=    1298
 SOLVING FOR ZETA FOR LAYER     2 ZONE     2

     483 UPPER PART EQS.       488 LOWER PART EQS.    BAND WIDTH + 1 =   31
 STRESS PERIOD=  1 TIMESTEP=311 LAYER=  2 ZONE=  2 ACTIVE CELLS=  971 NUMBER OF EQUATIONS=     971
 UBUDSV SAVING "      ZETASRF  1" ON UNIT 55 AT TIME STEP311, STRESS PERIOD    1

 HEAD WILL BE SAVED ON UNIT   51 AT END OF TIME STEP  311, STRESS PERIOD    1
 
 SOLVING FOR HEAD 
                                                   Max.-Head-Change                         Max.-Flux-Residual
  Residual-Control   Outer-Iter.   Inner-Iter.     Column Row Layer    Maximum-Head-Change  Column Row Layer    Maximum-Flux-Residual          L2-NORM 
          0                 1           1            33    8     1      -0.4773378394E-03      54   34    1        -0.3986639623E+00      0.3502843219E+01
          0                 2           1            39   49     2      -0.5916325733E-04      35   13    2        -0.8870068979E-02      0.1140680893E+00
          0                 3           1            34   23     1       0.3909683506E-04      36   52    2        -0.2167507411E-02      0.4294831209E-01
          0                 4           1            32   27     1       0.2528950143E-04      31   25    2         0.1454403998E-02      0.2541467936E-01
          0                 5           1            31   31     2       0.2948255706E-04      31   29    2         0.1266552800E-02      0.1884728676E-01
          0                 6           1            31   31     2       0.1930110300E-04      33   31    2         0.1003422378E-02      0.1535653082E-01
          0                 7           1            31   31     2       0.1984199229E-04      32   32    2         0.8422115642E-03      0.1318259328E-01
          0                 8           1            31   31     2       0.1435278500E-04      33   31    2         0.6732260828E-03      0.1177012853E-01
          0                 9           1            32   31     1       0.1313389647E-04      44   32    2         0.5922344345E-03      0.1053098903E-01
          0                10           1            30   31     1       0.1125082215E-04      33   31    2         0.4905580066E-03      0.9582135437E-02
          0                11           1            32   31     1       0.9478697172E-05      44   32    2         0.4925987896E-03      0.8662346797E-02

    ------------------------------------------------
       NWT REQUIRED           11 OUTER ITERATIONS 
       AND A TOTAL OF         11 INNER ITERATIONS.
    ------------------------------------------------

 OUTPUT CONTROL FOR STRESS PERIOD    1   TIME STEP  312
    SAVE HEAD FOR ALL LAYERS
 SOLVING FOR ZETA FOR LAYER     1 ZONE     2

     644 UPPER PART EQS.       657 LOWER PART EQS.    BAND WIDTH + 1 =   31
 STRESS PERIOD=  1 TIMESTEP=312 LAYER=  1 ZONE=  2 ACTIVE CELLS= 1301 NUMBER OF EQUATIONS=    1301
 SOLVING FOR ZETA FOR LAYER     2 ZONE     2

     489 UPPER PART EQS.       488 LOWER PART EQS.    BAND WIDTH + 1 =   28
 STRESS PERIOD=  1 TIMESTEP=312 LAYER=  2 ZONE=  2 ACTIVE CELLS=  977 NUMBER OF EQUATIONS=     977
 UBUDSV SAVING "      ZETASRF  1" ON UNIT 55 AT TIME STEP312, STRESS PERIOD    1

 HEAD WILL BE SAVED ON UNIT   51 AT END OF TIME STEP  312, STRESS PERIOD    1
 
 SOLVING FOR HEAD 
                                                   Max.-Head-Change                         Max.-Flux-Residual
  Residual-Control   Outer-Iter.   Inner-Iter.     Column Row Layer    Maximum-Head-Change  Column Row Layer    Maximum-Flux-Residual          L2-NORM 
          0                 1           1             8   26     1      -0.4618979765E-03      53   51    1         0.4045543457E+00      0.3903032884E+01
          0                 2           1            31   49     2      -0.5291560297E-04      31   49    2        -0.9017674633E-02      0.1073825625E+00
          0                 3           1            26   23     1       0.3948997219E-04      24   21    1         0.2033928977E-02      0.4115209988E-01
          0                 4           1            31   28     1       0.2494755340E-04      31   25    2         0.1420537886E-02      0.2608533135E-01
          0                 5           1            31   31     2       0.3392460825E-04      31   29    2         0.1295391205E-02      0.2093955500E-01
          0                 6           1            30   31     1       0.2026629372E-04      30   30    2         0.1057839810E-02      0.1812278869E-01
          0                 7           1            31   31     2       0.2479347411E-04      32   32    2         0.9256510667E-03      0.1598335895E-01
          0                 8           1            30   31     1       0.1505850642E-04      41   27    2         0.7807633167E-03      0.1444037989E-01
          0                 9           1            31   31     2       0.1759203345E-04      18   34    2         0.6958680854E-03      0.1287822547E-01
          0                10           1            29   32     1       0.1176896511E-04      41   27    2         0.6461696764E-03      0.1173161596E-01
                                                   Max.-Head-Change                         Max.-Flux-Residual
  Residual-Control   Outer-Iter.   Inner-Iter.     Column Row Layer    Maximum-Head-Change  Column Row Layer    Maximum-Flux-Residual          L2-NORM 
          0                11           1            32   31     1       0.1331433336E-04      18   34    2         0.5641052181E-03      0.1048394126E-01
          0                12           1            29   32     1       0.9419566659E-05      41   27    2         0.5370127888E-03      0.9560292007E-02

    ------------------------------------------------
       NWT REQUIRED           12 OUTER ITERATIONS 
       AND A TOTAL OF         12 INNER ITERATIONS.
    ------------------------------------------------

 OUTPUT CONTROL FOR STRESS PERIOD    1   TIME STEP  313
    SAVE HEAD FOR ALL LAYERS
 SOLVING FOR ZETA FOR LAYER     1 ZONE     2

     660 UPPER PART EQS.       648 LOWER PART EQS.    BAND WIDTH + 1 =   33
 STRESS PERIOD=  1 TIMESTEP=313 LAYER=  1 ZONE=  2 ACTIVE CELLS= 1308 NUMBER OF EQUATIONS=    1308
 SOLVING FOR ZETA FOR LAYER     2 ZONE     2

     493 UPPER PART EQS.       488 LOWER PART EQS.    BAND WIDTH + 1 =   30
 STRESS PERIOD=  1 TIMESTEP=313 LAYER=  2 ZONE=  2 ACTIVE CELLS=  981 NUMBER OF EQUATIONS=     981
 UBUDSV SAVING "      ZETASRF  1" ON UNIT 55 AT TIME STEP313, STRESS PERIOD    1

 HEAD WILL BE SAVED ON UNIT   51 AT END OF TIME STEP  313, STRESS PERIOD    1
 
 SOLVING FOR HEAD 
                                                   Max.-Head-Change                         Max.-Flux-Residual
  Residual-Control   Outer-Iter.   Inner-Iter.     Column Row Layer    Maximum-Head-Change  Column Row Layer    Maximum-Flux-Residual          L2-NORM 
          0                 1           1            31   47     2      -0.5103669955E-03      54   34    1        -0.4019949216E+00      0.3441439140E+01
          0                 2           1            23   49     2      -0.5477801040E-04      34   14    2        -0.1033940184E-01      0.1105142822E+00
          0                 3           1            39   30     1       0.3756155846E-04      36   52    2        -0.1896233618E-02      0.4205550585E-01
          0                 4           1            33   31     2       0.2461514603E-04      35   33    2         0.1391783016E-02      0.2502760952E-01
          0                 5           1            31   31     2       0.3023076017E-04      32   32    2         0.1266296781E-02      0.1854438345E-01
          0                 6           1            30   31     1       0.1815504622E-04      30   30    2         0.9821518790E-03      0.1503496546E-01
          0                 7           1            31   31     2       0.2076789818E-04      32   32    2         0.8348227566E-03      0.1283193326E-01
          0                 8           1            30   31     1       0.1306507371E-04      29   31    2         0.6493367825E-03      0.1141196815E-01
          0                 9           1            31   31     2       0.1373049799E-04      32   32    2         0.5668973190E-03      0.1015152868E-01
          0                10           1            29   32     1       0.1028347025E-04      16   32    2         0.4807592805E-03      0.9249220654E-02
          0                11           1            32   31     1       0.9719927908E-05      17   31    2         0.4635955552E-03      0.8305802030E-02

    ------------------------------------------------
       NWT REQUIRED           11 OUTER ITERATIONS 
       AND A TOTAL OF         11 INNER ITERATIONS.
    ------------------------------------------------

 OUTPUT CONTROL FOR STRESS PERIOD    1   TIME STEP  314
    SAVE HEAD FOR ALL LAYERS
 SOLVING FOR ZETA FOR LAYER     1 ZONE     2

     648 UPPER PART EQS.       655 LOWER PART EQS.    BAND WIDTH + 1 =   28
 STRESS PERIOD=  1 TIMESTEP=314 LAYER=  1 ZONE=  2 ACTIVE CELLS= 1303 NUMBER OF EQUATIONS=    1303
 SOLVING FOR ZETA FOR LAYER     2 ZONE     2

     497 UPPER PART EQS.       490 LOWER PART EQS.    BAND WIDTH + 1 =   30
 STRESS PERIOD=  1 TIMESTEP=314 LAYER=  2 ZONE=  2 ACTIVE CELLS=  987 NUMBER OF EQUATIONS=     987
 UBUDSV SAVING "      ZETASRF  1" ON UNIT 55 AT TIME STEP314, STRESS PERIOD    1

 HEAD WILL BE SAVED ON UNIT   51 AT END OF TIME STEP  314, STRESS PERIOD    1
 
 SOLVING FOR HEAD 
                                                   Max.-Head-Change                         Max.-Flux-Residual
  Residual-Control   Outer-Iter.   Inner-Iter.     Column Row Layer    Maximum-Head-Change  Column Row Layer    Maximum-Flux-Residual          L2-NORM 
          0                 1           1             8   26     1      -0.4667970621E-03      54   35    1        -0.4029112945E+00      0.3445035164E+01
          0                 2           1            31   49     2      -0.5587600351E-04      31   49    2        -0.9609756563E-02      0.1060579579E+00
          0                 3           1            36   23     1       0.4050151264E-04      38   42    2         0.2094566434E-02      0.4017543897E-01
          0                 4           1            32   27     1       0.2496242874E-04      32   24    2         0.1437022505E-02      0.2589844176E-01
          0                 5           1            31   31     2       0.3366730878E-04      31   29    2         0.1274047369E-02      0.2114938165E-01
          0                 6           1            31   31     2       0.2052017688E-04      33   31    2         0.1055364168E-02      0.1846967134E-01
          0                 7           1            31   31     2       0.2430096078E-04      32   32    2         0.9236216368E-03      0.1637566405E-01
          0                 8           1            30   31     1       0.1554232003E-04      41   27    2         0.7620478428E-03      0.1480338595E-01
          0                 9           1            32   31     1       0.1732097434E-04      18   30    2         0.6911475813E-03      0.1324688062E-01
          0                10           1            29   32     1       0.1230378521E-04      40   24    2         0.6297165233E-03      0.1204119463E-01
                                                   Max.-Head-Change                         Max.-Flux-Residual
  Residual-Control   Outer-Iter.   Inner-Iter.     Column Row Layer    Maximum-Head-Change  Column Row Layer    Maximum-Flux-Residual          L2-NORM 
          0                11           1            32   31     1       0.1323655062E-04      43   21    2         0.5679049730E-03      0.1080554428E-01
          0                12           1            29   32     1       0.9908269503E-05      40   24    2         0.5345999566E-03      0.9827285971E-02

    ------------------------------------------------
       NWT REQUIRED           12 OUTER ITERATIONS 
       AND A TOTAL OF         12 INNER ITERATIONS.
    ------------------------------------------------

 OUTPUT CONTROL FOR STRESS PERIOD    1   TIME STEP  315
    SAVE HEAD FOR ALL LAYERS
 SOLVING FOR ZETA FOR LAYER     1 ZONE     2

     656 UPPER PART EQS.       637 LOWER PART EQS.    BAND WIDTH + 1 =   36
 STRESS PERIOD=  1 TIMESTEP=315 LAYER=  1 ZONE=  2 ACTIVE CELLS= 1293 NUMBER OF EQUATIONS=    1293
 SOLVING FOR ZETA FOR LAYER     2 ZONE     2

     497 UPPER PART EQS.       490 LOWER PART EQS.    BAND WIDTH + 1 =   30
 STRESS PERIOD=  1 TIMESTEP=315 LAYER=  2 ZONE=  2 ACTIVE CELLS=  987 NUMBER OF EQUATIONS=     987
 UBUDSV SAVING "      ZETASRF  1" ON UNIT 55 AT TIME STEP315, STRESS PERIOD    1

 HEAD WILL BE SAVED ON UNIT   51 AT END OF TIME STEP  315, STRESS PERIOD    1
 
 SOLVING FOR HEAD 
                                                   Max.-Head-Change                         Max.-Flux-Residual
  Residual-Control   Outer-Iter.   Inner-Iter.     Column Row Layer    Maximum-Head-Change  Column Row Layer    Maximum-Flux-Residual          L2-NORM 
          0                 1           1            47   31     2      -0.5179675272E-03       8   28    1        -0.4054286746E+00      0.3459961388E+01
          0                 2           1            23   49     2      -0.5610638853E-04      40   48    2        -0.8321776065E-02      0.1096938042E+00
          0                 3           1            26   23     1       0.3700766245E-04      44   32    2         0.2380462478E-02      0.4221223247E-01
          0                 4           1            32   29     1       0.2446112354E-04      31   25    2         0.1390571454E-02      0.2494585994E-01
          0                 5           1            31   31     2       0.2984036786E-04      31   29    2         0.1248034952E-02      0.1831335135E-01
          0                 6           1            30   31     1       0.1784055017E-04      30   30    2         0.9681558637E-03      0.1474336388E-01
          0                 7           1            31   31     2       0.2031410256E-04      32   32    2         0.8173536916E-03      0.1255943789E-01
          0                 8           1            30   31     1       0.1282422081E-04      30   30    2         0.6361816080E-03      0.1117405331E-01
          0                 9           1            31   31     2       0.1339174375E-04      18   30    2         0.5957626739E-03      0.9942294488E-02
          0                10           1            29   32     1       0.1000934414E-04      18   30    2         0.4811771665E-03      0.9078094147E-02
          0                11           1            32   31     1       0.9486964701E-05      18   30    2         0.4860262239E-03      0.8151459235E-02

    ------------------------------------------------
       NWT REQUIRED           11 OUTER ITERATIONS 
       AND A TOTAL OF         11 INNER ITERATIONS.
    ------------------------------------------------

 OUTPUT CONTROL FOR STRESS PERIOD    1   TIME STEP  316
    SAVE HEAD FOR ALL LAYERS
 SOLVING FOR ZETA FOR LAYER     1 ZONE     2

     652 UPPER PART EQS.       644 LOWER PART EQS.    BAND WIDTH + 1 =   33
 STRESS PERIOD=  1 TIMESTEP=316 LAYER=  1 ZONE=  2 ACTIVE CELLS= 1296 NUMBER OF EQUATIONS=    1296
 SOLVING FOR ZETA FOR LAYER     2 ZONE     2

     501 UPPER PART EQS.       492 LOWER PART EQS.    BAND WIDTH + 1 =   30
 STRESS PERIOD=  1 TIMESTEP=316 LAYER=  2 ZONE=  2 ACTIVE CELLS=  993 NUMBER OF EQUATIONS=     993
 UBUDSV SAVING "      ZETASRF  1" ON UNIT 55 AT TIME STEP316, STRESS PERIOD    1

 HEAD WILL BE SAVED ON UNIT   51 AT END OF TIME STEP  316, STRESS PERIOD    1
 
 SOLVING FOR HEAD 
                                                   Max.-Head-Change                         Max.-Flux-Residual
  Residual-Control   Outer-Iter.   Inner-Iter.     Column Row Layer    Maximum-Head-Change  Column Row Layer    Maximum-Flux-Residual          L2-NORM 
          0                 1           1            29   47     2      -0.5088900646E-03      54   35    1        -0.4061449770E+00      0.3565562458E+01
          0                 2           1            11   31     2      -0.4525756230E-04      31   49    2        -0.8069041590E-02      0.1030421318E+00
          0                 3           1            24   25     1       0.3645641942E-04      23   22    1         0.1844038946E-02      0.3749339593E-01
          0                 4           1            32   29     1       0.2290720740E-04      30   26    2         0.1285782216E-02      0.2410033134E-01
          0                 5           1            31   31     2       0.3219879472E-04      32   32    2         0.1203772224E-02      0.1963766699E-01
          0                 6           1            30   31     1       0.1863202201E-04      33   31    2         0.9825090116E-03      0.1711203671E-01
          0                 7           1            31   31     2       0.2359065680E-04      32   32    2         0.8656442143E-03      0.1514023235E-01
          0                 8           1            29   32     1       0.1382790918E-04      41   27    2         0.7243930738E-03      0.1366606216E-01
          0                 9           1            31   31     2       0.1690812570E-04      32   32    2         0.6338705994E-03      0.1219919064E-01
          0                10           1            29   32     1       0.1087786737E-04      41   27    2         0.5991363576E-03      0.1108779144E-01
                                                   Max.-Head-Change                         Max.-Flux-Residual
  Residual-Control   Outer-Iter.   Inner-Iter.     Column Row Layer    Maximum-Head-Change  Column Row Layer    Maximum-Flux-Residual          L2-NORM 
          0                11           1            32   31     1       0.1287269363E-04      44   24    2         0.5230940217E-03      0.9919512473E-02
          0                12           1            29   32     1       0.8765430805E-05      40   24    2         0.4973816353E-03      0.9026863153E-02

    ------------------------------------------------
       NWT REQUIRED           12 OUTER ITERATIONS 
       AND A TOTAL OF         12 INNER ITERATIONS.
    ------------------------------------------------

 OUTPUT CONTROL FOR STRESS PERIOD    1   TIME STEP  317
    SAVE HEAD FOR ALL LAYERS
 SOLVING FOR ZETA FOR LAYER     1 ZONE     2

     650 UPPER PART EQS.       635 LOWER PART EQS.    BAND WIDTH + 1 =   32
 STRESS PERIOD=  1 TIMESTEP=317 LAYER=  1 ZONE=  2 ACTIVE CELLS= 1285 NUMBER OF EQUATIONS=    1285
 SOLVING FOR ZETA FOR LAYER     2 ZONE     2

     501 UPPER PART EQS.       494 LOWER PART EQS.    BAND WIDTH + 1 =   30
 STRESS PERIOD=  1 TIMESTEP=317 LAYER=  2 ZONE=  2 ACTIVE CELLS=  995 NUMBER OF EQUATIONS=     995
 UBUDSV SAVING "      ZETASRF  1" ON UNIT 55 AT TIME STEP317, STRESS PERIOD    1

 HEAD WILL BE SAVED ON UNIT   51 AT END OF TIME STEP  317, STRESS PERIOD    1
 
 SOLVING FOR HEAD 
                                                   Max.-Head-Change                         Max.-Flux-Residual
  Residual-Control   Outer-Iter.   Inner-Iter.     Column Row Layer    Maximum-Head-Change  Column Row Layer    Maximum-Flux-Residual          L2-NORM 
          0                 1           1            33   47     2      -0.5310923421E-03      54   34    1        -0.4089101765E+00      0.3899807174E+01
          0                 2           1            39   49     2      -0.5602161966E-04      35   13    2        -0.9099621319E-02      0.1138594094E+00
          0                 3           1            26   23     1       0.3708006948E-04      36   52    2        -0.2093369534E-02      0.4230265100E-01
          0                 4           1            32   29     1       0.2473327621E-04      31   25    2         0.1412342442E-02      0.2492797052E-01
          0                 5           1            31   31     2       0.2931096884E-04      31   29    2         0.1253898910E-02      0.1845471568E-01
          0                 6           1            30   31     1       0.1899210382E-04      30   30    2         0.9817986313E-03      0.1503453201E-01
          0                 7           1            31   31     2       0.1939076746E-04      32   32    2         0.8272123689E-03      0.1288379260E-01
          0                 8           1            30   31     1       0.1442375845E-04      30   30    2         0.6561560988E-03      0.1148087770E-01
          0                 9           1            31   31     2       0.1252971907E-04      32   32    2         0.5637007043E-03      0.1026391843E-01
          0                10           1            30   31     1       0.1151762602E-04      41   31    2         0.4962392808E-03      0.9312206213E-02
          0                11           1            32   31     1       0.8957577823E-05      18   42    2         0.4744122603E-03      0.8426020138E-02

    ------------------------------------------------
       NWT REQUIRED           11 OUTER ITERATIONS 
       AND A TOTAL OF         11 INNER ITERATIONS.
    ------------------------------------------------

 OUTPUT CONTROL FOR STRESS PERIOD    1   TIME STEP  318
    SAVE HEAD FOR ALL LAYERS
 SOLVING FOR ZETA FOR LAYER     1 ZONE     2

     638 UPPER PART EQS.       652 LOWER PART EQS.    BAND WIDTH + 1 =   30
 STRESS PERIOD=  1 TIMESTEP=318 LAYER=  1 ZONE=  2 ACTIVE CELLS= 1290 NUMBER OF EQUATIONS=    1290
 SOLVING FOR ZETA FOR LAYER     2 ZONE     2

     505 UPPER PART EQS.       500 LOWER PART EQS.    BAND WIDTH + 1 =   30
 STRESS PERIOD=  1 TIMESTEP=318 LAYER=  2 ZONE=  2 ACTIVE CELLS= 1005 NUMBER OF EQUATIONS=    1005
 UBUDSV SAVING "      ZETASRF  1" ON UNIT 55 AT TIME STEP318, STRESS PERIOD    1

 HEAD WILL BE SAVED ON UNIT   51 AT END OF TIME STEP  318, STRESS PERIOD    1
 
 SOLVING FOR HEAD 
                                                   Max.-Head-Change                         Max.-Flux-Residual
  Residual-Control   Outer-Iter.   Inner-Iter.     Column Row Layer    Maximum-Head-Change  Column Row Layer    Maximum-Flux-Residual          L2-NORM 
          0                 1           1             8   26     1      -0.4772959880E-03      51    9    1         0.4185631643E+00      0.4015273720E+01
          0                 2           1            31   49     2      -0.5327133365E-04      31   49    2        -0.9076637303E-02      0.1065592912E+00
          0                 3           1            26   23     1       0.3806202773E-04      24   21    1         0.1984463523E-02      0.4056715450E-01
          0                 4           1            33   28     1       0.2435537882E-04      31   25    2         0.1386971937E-02      0.2576350046E-01
          0                 5           1            31   31     2       0.3338468200E-04      31   29    2         0.1263573971E-02      0.2084292709E-01
          0                 6           1            30   31     1       0.2020614754E-04      33   31    2         0.1041831029E-02      0.1813199101E-01
          0                 7           1            31   31     2       0.2427803544E-04      32   32    2         0.9143824692E-03      0.1603568912E-01
          0                 8           1            30   31     1       0.1520354166E-04      41   27    2         0.7781918953E-03      0.1448496618E-01
          0                 9           1            31   31     2       0.1727160346E-04      18   34    2         0.6927937576E-03      0.1294533599E-01
          0                10           1            29   32     1       0.1192999277E-04      41   27    2         0.6442145356E-03      0.1176821230E-01
                                                   Max.-Head-Change                         Max.-Flux-Residual
  Residual-Control   Outer-Iter.   Inner-Iter.     Column Row Layer    Maximum-Head-Change  Column Row Layer    Maximum-Flux-Residual          L2-NORM 
          0                11           1            32   31     1       0.1318554924E-04      18   34    2         0.5636968211E-03      0.1054485646E-01
          0                12           1            29   32     1       0.9537200231E-05      41   27    2         0.5356597152E-03      0.9593604847E-02

    ------------------------------------------------
       NWT REQUIRED           12 OUTER ITERATIONS 
       AND A TOTAL OF         12 INNER ITERATIONS.
    ------------------------------------------------

 OUTPUT CONTROL FOR STRESS PERIOD    1   TIME STEP  319
    SAVE HEAD FOR ALL LAYERS
 SOLVING FOR ZETA FOR LAYER     1 ZONE     2

     660 UPPER PART EQS.       637 LOWER PART EQS.    BAND WIDTH + 1 =   43
 STRESS PERIOD=  1 TIMESTEP=319 LAYER=  1 ZONE=  2 ACTIVE CELLS= 1297 NUMBER OF EQUATIONS=    1297
 SOLVING FOR ZETA FOR LAYER     2 ZONE     2

     509 UPPER PART EQS.       500 LOWER PART EQS.    BAND WIDTH + 1 =   32
 STRESS PERIOD=  1 TIMESTEP=319 LAYER=  2 ZONE=  2 ACTIVE CELLS= 1009 NUMBER OF EQUATIONS=    1009
 UBUDSV SAVING "      ZETASRF  1" ON UNIT 55 AT TIME STEP319, STRESS PERIOD    1

 HEAD WILL BE SAVED ON UNIT   51 AT END OF TIME STEP  319, STRESS PERIOD    1
 
 SOLVING FOR HEAD 
                                                   Max.-Head-Change                         Max.-Flux-Residual
  Residual-Control   Outer-Iter.   Inner-Iter.     Column Row Layer    Maximum-Head-Change  Column Row Layer    Maximum-Flux-Residual          L2-NORM 
          0                 1           1            28   47     2      -0.5033631372E-03      54   28    1        -0.4123555909E+00      0.3717483588E+01
          0                 2           1            49   39     2      -0.5503008554E-04      37   47    2        -0.1050422774E-01      0.1093170841E+00
          0                 3           1            39   30     1       0.3450988547E-04      36   52    2        -0.1912719733E-02      0.3991225527E-01
          0                 4           1            32   29     1       0.2248331525E-04      33   27    2         0.1283117400E-02      0.2343907227E-01
          0                 5           1            31   31     2       0.2810543981E-04      32   32    2         0.1169244718E-02      0.1695128514E-01
          0                 6           1            30   31     1       0.1618997371E-04      30   30    2         0.8966481244E-03      0.1346352830E-01
          0                 7           1            31   31     2       0.1886412630E-04      32   32    2         0.7565444129E-03      0.1135330488E-01
          0                 8           1            30   31     1       0.1165746643E-04      30   30    2         0.5830969238E-03      0.9997390401E-02
          0                 9           1            31   31     2       0.1204836153E-04      32   32    2         0.5036797813E-03      0.8882374349E-02
          0                10           1            29   32     1       0.9328705027E-05      41   27    2         0.4201174739E-03      0.8064878122E-02

    ------------------------------------------------
       NWT REQUIRED           10 OUTER ITERATIONS 
       AND A TOTAL OF         10 INNER ITERATIONS.
    ------------------------------------------------

 OUTPUT CONTROL FOR STRESS PERIOD    1   TIME STEP  320
    SAVE HEAD FOR ALL LAYERS
 SOLVING FOR ZETA FOR LAYER     1 ZONE     2

     642 UPPER PART EQS.       647 LOWER PART EQS.    BAND WIDTH + 1 =   26
 STRESS PERIOD=  1 TIMESTEP=320 LAYER=  1 ZONE=  2 ACTIVE CELLS= 1289 NUMBER OF EQUATIONS=    1289
 SOLVING FOR ZETA FOR LAYER     2 ZONE     2

     511 UPPER PART EQS.       508 LOWER PART EQS.    BAND WIDTH + 1 =   32
 STRESS PERIOD=  1 TIMESTEP=320 LAYER=  2 ZONE=  2 ACTIVE CELLS= 1019 NUMBER OF EQUATIONS=    1019
 UBUDSV SAVING "      ZETASRF  1" ON UNIT 55 AT TIME STEP320, STRESS PERIOD    1

 HEAD WILL BE SAVED ON UNIT   51 AT END OF TIME STEP  320, STRESS PERIOD    1
 
 SOLVING FOR HEAD 
                                                   Max.-Head-Change                         Max.-Flux-Residual
  Residual-Control   Outer-Iter.   Inner-Iter.     Column Row Layer    Maximum-Head-Change  Column Row Layer    Maximum-Flux-Residual          L2-NORM 
          0                 1           1             8   26     1      -0.4824977497E-03      54   27    1        -0.4129030336E+00      0.3560861644E+01
          0                 2           1            31   49     2      -0.5401748669E-04      31   49    2        -0.9422381633E-02      0.1045663677E+00
          0                 3           1            37   24     1       0.3836982470E-04      24   21    1         0.2022961219E-02      0.3974122226E-01
          0                 4           1            32   27     1       0.2439330607E-04      31   25    2         0.1397086262E-02      0.2569955220E-01
          0                 5           1            31   31     2       0.3418914272E-04      31   29    2         0.1265294100E-02      0.2113269797E-01
          0                 6           1            30   31     1       0.2015127558E-04      33   31    2         0.1042126499E-02      0.1849763559E-01
          0                 7           1            31   31     2       0.2511086999E-04      32   32    2         0.9221311216E-03      0.1640943285E-01
          0                 8           1            29   32     1       0.1505096243E-04      41   27    2         0.8057375568E-03      0.1482340329E-01
          0                 9           1            32   31     1       0.1810564512E-04      18   30    2         0.7055701407E-03      0.1324179726E-01
          0                10           1            29   32     1       0.1185458330E-04      41   27    2         0.6723803369E-03      0.1202917242E-01
                                                   Max.-Head-Change                         Max.-Flux-Residual
  Residual-Control   Outer-Iter.   Inner-Iter.     Column Row Layer    Maximum-Head-Change  Column Row Layer    Maximum-Flux-Residual          L2-NORM 
          0                11           1            32   31     1       0.1389998682E-04      18   30    2         0.5727277079E-03      0.1076876780E-01
          0                12           1            29   32     1       0.9529116055E-05      41   27    2         0.5612500936E-03      0.9792986047E-02

    ------------------------------------------------
       NWT REQUIRED           12 OUTER ITERATIONS 
       AND A TOTAL OF         12 INNER ITERATIONS.
    ------------------------------------------------

 OUTPUT CONTROL FOR STRESS PERIOD    1   TIME STEP  321
    SAVE HEAD FOR ALL LAYERS
 SOLVING FOR ZETA FOR LAYER     1 ZONE     2

     656 UPPER PART EQS.       637 LOWER PART EQS.    BAND WIDTH + 1 =   36
 STRESS PERIOD=  1 TIMESTEP=321 LAYER=  1 ZONE=  2 ACTIVE CELLS= 1293 NUMBER OF EQUATIONS=    1293
 SOLVING FOR ZETA FOR LAYER     2 ZONE     2

     511 UPPER PART EQS.       508 LOWER PART EQS.    BAND WIDTH + 1 =   32
 STRESS PERIOD=  1 TIMESTEP=321 LAYER=  2 ZONE=  2 ACTIVE CELLS= 1019 NUMBER OF EQUATIONS=    1019
 UBUDSV SAVING "      ZETASRF  1" ON UNIT 55 AT TIME STEP321, STRESS PERIOD    1

 HEAD WILL BE SAVED ON UNIT   51 AT END OF TIME STEP  321, STRESS PERIOD    1
 
 SOLVING FOR HEAD 
                                                   Max.-Head-Change                         Max.-Flux-Residual
  Residual-Control   Outer-Iter.   Inner-Iter.     Column Row Layer    Maximum-Head-Change  Column Row Layer    Maximum-Flux-Residual          L2-NORM 
          0                 1           1            15   28     2      -0.5289795967E-03       8   28    1        -0.4158677590E+00      0.3651295937E+01
          0                 2           1            23   49     2      -0.5523334389E-04      39   49    2        -0.8125185827E-02      0.1077355409E+00
          0                 3           1            26   23     1       0.3517820926E-04      36   52    2        -0.2035233673E-02      0.4103466192E-01
          0                 4           1            32   29     1       0.2340242639E-04      31   25    2         0.1338863426E-02      0.2425880698E-01
          0                 5           1            31   31     2       0.2942063706E-04      31   29    2         0.1206691041E-02      0.1779286557E-01
          0                 6           1            30   31     1       0.1713336768E-04      30   30    2         0.9374421696E-03      0.1432787350E-01
          0                 7           1            31   31     2       0.2037157702E-04      32   32    2         0.7937128086E-03      0.1218418437E-01
          0                 8           1            30   31     1       0.1220932220E-04      30   30    2         0.6143142249E-03      0.1082415129E-01
          0                 9           1            31   31     2       0.1338614998E-04      32   32    2         0.5348060268E-03      0.9598168399E-02
          0                10           1            29   32     1       0.9574349120E-05      42   34    2         0.4665309200E-03      0.8761646981E-02

    ------------------------------------------------
       NWT REQUIRED           10 OUTER ITERATIONS 
       AND A TOTAL OF         10 INNER ITERATIONS.
    ------------------------------------------------

 OUTPUT CONTROL FOR STRESS PERIOD    1   TIME STEP  322
    SAVE HEAD FOR ALL LAYERS
 SOLVING FOR ZETA FOR LAYER     1 ZONE     2

     650 UPPER PART EQS.       644 LOWER PART EQS.    BAND WIDTH + 1 =   31
 STRESS PERIOD=  1 TIMESTEP=322 LAYER=  1 ZONE=  2 ACTIVE CELLS= 1294 NUMBER OF EQUATIONS=    1294
 SOLVING FOR ZETA FOR LAYER     2 ZONE     2

     517 UPPER PART EQS.       508 LOWER PART EQS.    BAND WIDTH + 1 =   32
 STRESS PERIOD=  1 TIMESTEP=322 LAYER=  2 ZONE=  2 ACTIVE CELLS= 1025 NUMBER OF EQUATIONS=    1025
 UBUDSV SAVING "      ZETASRF  1" ON UNIT 55 AT TIME STEP322, STRESS PERIOD    1

 HEAD WILL BE SAVED ON UNIT   51 AT END OF TIME STEP  322, STRESS PERIOD    1
 
 SOLVING FOR HEAD 
                                                   Max.-Head-Change                         Max.-Flux-Residual
  Residual-Control   Outer-Iter.   Inner-Iter.     Column Row Layer    Maximum-Head-Change  Column Row Layer    Maximum-Flux-Residual          L2-NORM 
          0                 1           1             8   26     1      -0.4878268907E-03      54   27    1        -0.4162794042E+00      0.3699930077E+01
          0                 2           1            31   49     2      -0.4570654218E-04      31   49    2        -0.8378495771E-02      0.1015016260E+00
          0                 3           1            24   25     1       0.3587485980E-04      23   22    1         0.1813681466E-02      0.3694993920E-01
          0                 4           1            32   29     1       0.2289979806E-04      35   37    2         0.1280701291E-02      0.2411282656E-01
          0                 5           1            31   31     2       0.3258542823E-04      32   32    2         0.1195639612E-02      0.1990476523E-01
          0                 6           1            30   31     1       0.1877722779E-04      33   31    2         0.9815269212E-03      0.1746726532E-01
          0                 7           1            31   31     2       0.2407341444E-04      32   32    2         0.8687993403E-03      0.1549759456E-01
          0                 8           1            29   32     1       0.1390857898E-04      41   27    2         0.7515219252E-03      0.1400968820E-01
          0                 9           1            31   31     2       0.1750053607E-04      44   24    2         0.6490236050E-03      0.1249623035E-01
          0                10           1            29   32     1       0.1089896726E-04      41   27    2         0.6274835033E-03      0.1136102306E-01
                                                   Max.-Head-Change                         Max.-Flux-Residual
  Residual-Control   Outer-Iter.   Inner-Iter.     Column Row Layer    Maximum-Head-Change  Column Row Layer    Maximum-Flux-Residual          L2-NORM 
          0                11           1            32   31     1       0.1346547659E-04      44   24    2         0.5434346218E-03      0.1014597209E-01
          0                12           1            29   32     1       0.8743029468E-05      41   27    2         0.5238047173E-03      0.9235259381E-02

    ------------------------------------------------
       NWT REQUIRED           12 OUTER ITERATIONS 
       AND A TOTAL OF         12 INNER ITERATIONS.
    ------------------------------------------------

 OUTPUT CONTROL FOR STRESS PERIOD    1   TIME STEP  323
    SAVE HEAD FOR ALL LAYERS
 SOLVING FOR ZETA FOR LAYER     1 ZONE     2

     654 UPPER PART EQS.       643 LOWER PART EQS.    BAND WIDTH + 1 =   32
 STRESS PERIOD=  1 TIMESTEP=323 LAYER=  1 ZONE=  2 ACTIVE CELLS= 1297 NUMBER OF EQUATIONS=    1297
 SOLVING FOR ZETA FOR LAYER     2 ZONE     2

     517 UPPER PART EQS.       508 LOWER PART EQS.    BAND WIDTH + 1 =   32
 STRESS PERIOD=  1 TIMESTEP=323 LAYER=  2 ZONE=  2 ACTIVE CELLS= 1025 NUMBER OF EQUATIONS=    1025
 UBUDSV SAVING "      ZETASRF  1" ON UNIT 55 AT TIME STEP323, STRESS PERIOD    1

 HEAD WILL BE SAVED ON UNIT   51 AT END OF TIME STEP  323, STRESS PERIOD    1
 
 SOLVING FOR HEAD 
                                                   Max.-Head-Change                         Max.-Flux-Residual
  Residual-Control   Outer-Iter.   Inner-Iter.     Column Row Layer    Maximum-Head-Change  Column Row Layer    Maximum-Flux-Residual          L2-NORM 
          0                 1           1            32    8     1      -0.5128695167E-03      54   28    1        -0.4193901326E+00      0.3523817113E+01
          0                 2           1            23   49     2      -0.5380112625E-04      23   49    2        -0.7859612073E-02      0.1079122009E+00
          0                 3           1            26   23     1       0.3525093947E-04      36   52    2        -0.2021761416E-02      0.4033847307E-01
          0                 4           1            32   29     1       0.2280833321E-04      31   25    2         0.1314607235E-02      0.2369033892E-01
          0                 5           1            31   31     2       0.2856250736E-04      31   29    2         0.1183157936E-02      0.1736619367E-01
          0                 6           1            30   31     1       0.1688030410E-04      30   30    2         0.9182190356E-03      0.1396598852E-01
          0                 7           1            31   31     2       0.1956959456E-04      32   32    2         0.7759099642E-03      0.1189827960E-01
          0                 8           1            30   31     1       0.1215881482E-04      30   30    2         0.6027209730E-03      0.1055457931E-01
          0                 9           1            31   31     2       0.1277906776E-04      32   32    2         0.5230314083E-03      0.9393308041E-02
          0                10           1            29   32     1       0.9587327602E-05      20   44    2         0.4517223055E-03      0.8552684793E-02

    ------------------------------------------------
       NWT REQUIRED           10 OUTER ITERATIONS 
       AND A TOTAL OF         10 INNER ITERATIONS.
    ------------------------------------------------

 OUTPUT CONTROL FOR STRESS PERIOD    1   TIME STEP  324
    SAVE HEAD FOR ALL LAYERS
 SOLVING FOR ZETA FOR LAYER     1 ZONE     2

     648 UPPER PART EQS.       647 LOWER PART EQS.    BAND WIDTH + 1 =   26
 STRESS PERIOD=  1 TIMESTEP=324 LAYER=  1 ZONE=  2 ACTIVE CELLS= 1295 NUMBER OF EQUATIONS=    1295
 SOLVING FOR ZETA FOR LAYER     2 ZONE     2

     517 UPPER PART EQS.       508 LOWER PART EQS.    BAND WIDTH + 1 =   32
 STRESS PERIOD=  1 TIMESTEP=324 LAYER=  2 ZONE=  2 ACTIVE CELLS= 1025 NUMBER OF EQUATIONS=    1025
 UBUDSV SAVING "      ZETASRF  1" ON UNIT 55 AT TIME STEP324, STRESS PERIOD    1

 HEAD WILL BE SAVED ON UNIT   51 AT END OF TIME STEP  324, STRESS PERIOD    1
 
 SOLVING FOR HEAD 
                                                   Max.-Head-Change                         Max.-Flux-Residual
  Residual-Control   Outer-Iter.   Inner-Iter.     Column Row Layer    Maximum-Head-Change  Column Row Layer    Maximum-Flux-Residual          L2-NORM 
          0                 1           1             8   26     1      -0.4927526685E-03      54   27    1        -0.4196780794E+00      0.3737973927E+01
          0                 2           1            31   49     2      -0.5160097257E-04      31   49    2        -0.8997537415E-02      0.1044916702E+00
          0                 3           1            38   23     1       0.3772059621E-04      39   41    2         0.1937129734E-02      0.3867788067E-01
          0                 4           1            32   27     1       0.2433539598E-04      35   37    2         0.1377798259E-02      0.2547810011E-01
          0                 5           1            31   31     2       0.3383298398E-04      31   29    2         0.1245358738E-02      0.2129104810E-01
          0                 6           1            30   31     1       0.2034141882E-04      33   31    2         0.1038425235E-02      0.1881231562E-01
          0                 7           1            31   31     2       0.2467259188E-04      32   32    2         0.9195009511E-03      0.1675262052E-01
          0                 8           1            30   31     1       0.1551813012E-04      41   27    2         0.8066949239E-03      0.1516598039E-01
          0                 9           1            32   31     1       0.1778385014E-04      44   24    2         0.7087778752E-03      0.1356887131E-01
          0                10           1            29   32     1       0.1237725372E-04      41   27    2         0.6697628961E-03      0.1232693851E-01
                                                   Max.-Head-Change                         Max.-Flux-Residual
  Residual-Control   Outer-Iter.   Inner-Iter.     Column Row Layer    Maximum-Head-Change  Column Row Layer    Maximum-Flux-Residual          L2-NORM 
          0                11           1            32   31     1       0.1367723007E-04      44   24    2         0.5997504956E-03      0.1105641447E-01
          0                12           1            29   32     1       0.1000977040E-04      41   27    2         0.5565581828E-03      0.1004693954E-01
          0                13           1            32   31     1       0.1092564989E-04      44   24    2         0.4949889306E-03      0.9024563122E-02
          0                14           1            29   32     1       0.8125929996E-05      41   27    2         0.4612341046E-03      0.8201064044E-02

    ------------------------------------------------
       NWT REQUIRED           14 OUTER ITERATIONS 
       AND A TOTAL OF         14 INNER ITERATIONS.
    ------------------------------------------------

 OUTPUT CONTROL FOR STRESS PERIOD    1   TIME STEP  325
    SAVE HEAD FOR ALL LAYERS
 SOLVING FOR ZETA FOR LAYER     1 ZONE     2

     652 UPPER PART EQS.       632 LOWER PART EQS.    BAND WIDTH + 1 =   41
 STRESS PERIOD=  1 TIMESTEP=325 LAYER=  1 ZONE=  2 ACTIVE CELLS= 1284 NUMBER OF EQUATIONS=    1284
 SOLVING FOR ZETA FOR LAYER     2 ZONE     2

     517 UPPER PART EQS.       508 LOWER PART EQS.    BAND WIDTH + 1 =   32
 STRESS PERIOD=  1 TIMESTEP=325 LAYER=  2 ZONE=  2 ACTIVE CELLS= 1025 NUMBER OF EQUATIONS=    1025
 UBUDSV SAVING "      ZETASRF  1" ON UNIT 55 AT TIME STEP325, STRESS PERIOD    1

 HEAD WILL BE SAVED ON UNIT   51 AT END OF TIME STEP  325, STRESS PERIOD    1
 
 SOLVING FOR HEAD 
                                                   Max.-Head-Change                         Max.-Flux-Residual
  Residual-Control   Outer-Iter.   Inner-Iter.     Column Row Layer    Maximum-Head-Change  Column Row Layer    Maximum-Flux-Residual          L2-NORM 
          0                 1           1             8   32     1      -0.5186937231E-03      54   28    1        -0.4228369541E+00      0.4005205819E+01
          0                 2           1            39   49     2      -0.5280088715E-04      30   14    2        -0.9068358442E-02      0.1071841055E+00
          0                 3           1            37   24     1       0.3128813114E-04      36   52    2        -0.1945751935E-02      0.3934923956E-01
          0                 4           1            32   29     1       0.1938752812E-04      33   27    2         0.1144148046E-02      0.2197554271E-01
          0                 5           1            31   31     2       0.2524463545E-04      32   32    2         0.1026175276E-02      0.1497176848E-01
          0                 6           1            31   31     2       0.1289063701E-04      30   30    2         0.7633305693E-03      0.1118978028E-01
          0                 7           1            31   31     2       0.1650517393E-04      32   32    2         0.6362055891E-03      0.9016375802E-02
          0                 8           1            30   31     1       0.8621606670E-05      33   31    2         0.4707821121E-03      0.7732512761E-02

    ------------------------------------------------
       NWT REQUIRED            8 OUTER ITERATIONS 
       AND A TOTAL OF          8 INNER ITERATIONS.
    ------------------------------------------------

 OUTPUT CONTROL FOR STRESS PERIOD    1   TIME STEP  326
    SAVE HEAD FOR ALL LAYERS
 SOLVING FOR ZETA FOR LAYER     1 ZONE     2

     642 UPPER PART EQS.       644 LOWER PART EQS.    BAND WIDTH + 1 =   25
 STRESS PERIOD=  1 TIMESTEP=326 LAYER=  1 ZONE=  2 ACTIVE CELLS= 1286 NUMBER OF EQUATIONS=    1286
 SOLVING FOR ZETA FOR LAYER     2 ZONE     2

     517 UPPER PART EQS.       509 LOWER PART EQS.    BAND WIDTH + 1 =   32
 STRESS PERIOD=  1 TIMESTEP=326 LAYER=  2 ZONE=  2 ACTIVE CELLS= 1026 NUMBER OF EQUATIONS=    1026
 UBUDSV SAVING "      ZETASRF  1" ON UNIT 55 AT TIME STEP326, STRESS PERIOD    1

 HEAD WILL BE SAVED ON UNIT   51 AT END OF TIME STEP  326, STRESS PERIOD    1
 
 SOLVING FOR HEAD 
                                                   Max.-Head-Change                         Max.-Flux-Residual
  Residual-Control   Outer-Iter.   Inner-Iter.     Column Row Layer    Maximum-Head-Change  Column Row Layer    Maximum-Flux-Residual          L2-NORM 
          0                 1           1            15   35     2      -0.5143899066E-03      54   27    1        -0.4230683051E+00      0.4020319052E+01
          0                 2           1            31   49     2      -0.5438439011E-04      32   48    2        -0.1165978366E-01      0.1083652262E+00
          0                 3           1            24   23     1       0.3944019165E-04      24   21    1         0.2127763990E-02      0.3958073220E-01
          0                 4           1            30   27     1       0.2403912083E-04      31   25    2         0.1359812391E-02      0.2541331627E-01
          0                 5           1            31   31     2       0.3330224732E-04      31   29    2         0.1254132479E-02      0.2091115476E-01
          0                 6           1            30   31     1       0.2059797792E-04      29   31    2         0.1034253510E-02      0.1832504096E-01
          0                 7           1            31   31     2       0.2327730488E-04      32   32    2         0.9106378742E-03      0.1631791076E-01
          0                 8           1            29   32     1       0.1615149154E-04      42   30    2         0.7951175769E-03      0.1471510662E-01
          0                 9           1            31   31     2       0.1627668059E-04      18   34    2         0.7391991971E-03      0.1323596633E-01
          0                10           1            29   32     1       0.1310302305E-04      42   30    2         0.6440180932E-03      0.1197069801E-01
                                                   Max.-Head-Change                         Max.-Flux-Residual
  Residual-Control   Outer-Iter.   Inner-Iter.     Column Row Layer    Maximum-Head-Change  Column Row Layer    Maximum-Flux-Residual          L2-NORM 
          0                11           1            32   31     1       0.1235486740E-04      18   34    2         0.5980075831E-03      0.1081511700E-01
          0                12           1            29   32     1       0.1065661330E-04      42   30    2         0.5261410480E-03      0.9772005012E-02
          0                13           1            32   31     1       0.9842284380E-05      44   36    2         0.4843617523E-03      0.8846662975E-02

    ------------------------------------------------
       NWT REQUIRED           13 OUTER ITERATIONS 
       AND A TOTAL OF         13 INNER ITERATIONS.
    ------------------------------------------------

 OUTPUT CONTROL FOR STRESS PERIOD    1   TIME STEP  327
    SAVE HEAD FOR ALL LAYERS
 SOLVING FOR ZETA FOR LAYER     1 ZONE     2

     658 UPPER PART EQS.       640 LOWER PART EQS.    BAND WIDTH + 1 =   38
 STRESS PERIOD=  1 TIMESTEP=327 LAYER=  1 ZONE=  2 ACTIVE CELLS= 1298 NUMBER OF EQUATIONS=    1298
 SOLVING FOR ZETA FOR LAYER     2 ZONE     2

     517 UPPER PART EQS.       516 LOWER PART EQS.    BAND WIDTH + 1 =   32
 STRESS PERIOD=  1 TIMESTEP=327 LAYER=  2 ZONE=  2 ACTIVE CELLS= 1033 NUMBER OF EQUATIONS=    1033
 UBUDSV SAVING "      ZETASRF  1" ON UNIT 55 AT TIME STEP327, STRESS PERIOD    1

 HEAD WILL BE SAVED ON UNIT   51 AT END OF TIME STEP  327, STRESS PERIOD    1
 
 SOLVING FOR HEAD 
                                                   Max.-Head-Change                         Max.-Flux-Residual
  Residual-Control   Outer-Iter.   Inner-Iter.     Column Row Layer    Maximum-Head-Change  Column Row Layer    Maximum-Flux-Residual          L2-NORM 
          0                 1           1            32    8     1      -0.5254514268E-03      54   34    1        -0.4264451355E+00      0.3590346382E+01
          0                 2           1            39   49     2      -0.5616710085E-04      39   49    2        -0.8169437075E-02      0.1086300471E+00
          0                 3           1            37   24     1       0.3385025557E-04      36   52    2        -0.2117228658E-02      0.4023084093E-01
          0                 4           1            32   29     1       0.2259084324E-04      31   25    2         0.1288457167E-02      0.2349655163E-01
          0                 5           1            31   31     2       0.2754774880E-04      31   29    2         0.1156633454E-02      0.1712572908E-01
          0                 6           1            31   31     2       0.1679026886E-04      30   30    2         0.9046668732E-03      0.1372922384E-01
          0                 7           1            31   31     2       0.1894475364E-04      32   32    2         0.7640594069E-03      0.1164493397E-01
          0                 8           1            30   31     1       0.1207939367E-04      30   30    2         0.5944242644E-03      0.1032025224E-01
          0                 9           1            31   31     2       0.1244734524E-04      32   32    2         0.5140639797E-03      0.9159031333E-02
          0                10           1            30   31     1       0.9414754861E-05      42   34    2         0.4313347650E-03      0.8346837587E-02

    ------------------------------------------------
       NWT REQUIRED           10 OUTER ITERATIONS 
       AND A TOTAL OF         10 INNER ITERATIONS.
    ------------------------------------------------

 OUTPUT CONTROL FOR STRESS PERIOD    1   TIME STEP  328
    SAVE HEAD FOR ALL LAYERS
 SOLVING FOR ZETA FOR LAYER     1 ZONE     2

     652 UPPER PART EQS.       644 LOWER PART EQS.    BAND WIDTH + 1 =   33
 STRESS PERIOD=  1 TIMESTEP=328 LAYER=  1 ZONE=  2 ACTIVE CELLS= 1296 NUMBER OF EQUATIONS=    1296
 SOLVING FOR ZETA FOR LAYER     2 ZONE     2

     517 UPPER PART EQS.       516 LOWER PART EQS.    BAND WIDTH + 1 =   32
 STRESS PERIOD=  1 TIMESTEP=328 LAYER=  2 ZONE=  2 ACTIVE CELLS= 1033 NUMBER OF EQUATIONS=    1033
 UBUDSV SAVING "      ZETASRF  1" ON UNIT 55 AT TIME STEP328, STRESS PERIOD    1

 HEAD WILL BE SAVED ON UNIT   51 AT END OF TIME STEP  328, STRESS PERIOD    1
 
 SOLVING FOR HEAD 
                                                   Max.-Head-Change                         Max.-Flux-Residual
  Residual-Control   Outer-Iter.   Inner-Iter.     Column Row Layer    Maximum-Head-Change  Column Row Layer    Maximum-Flux-Residual          L2-NORM 
          0                 1           1             8   26     1      -0.5030763462E-03      54   27    1        -0.4264981307E+00      0.3737743845E+01
          0                 2           1            31   49     2      -0.4512681529E-04      31   49    2        -0.8375958954E-02      0.9934419623E-01
          0                 3           1            38   23     1       0.3283766365E-04      29   51    2        -0.1654741331E-02      0.3454668874E-01
          0                 4           1            33   28     1       0.2110353322E-04      40   24    2         0.1204528379E-02      0.2223388040E-01
          0                 5           1            32   32     2       0.2899539681E-04      32   32    2         0.1091017925E-02      0.1828909463E-01
          0                 6           1            31   32     1       0.1794304778E-04      33   31    2         0.9083371887E-03      0.1604485736E-01
          0                 7           1            31   31     2       0.2047345786E-04      32   32    2         0.7954791082E-03      0.1426941770E-01
          0                 8           1            30   31     1       0.1397557816E-04      41   27    2         0.6910637816E-03      0.1289379202E-01
          0                 9           1            32   31     1       0.1439571875E-04      18   34    2         0.6274730290E-03      0.1157173775E-01
          0                10           1            29   32     1       0.1129012612E-04      41   27    2         0.5695419746E-03      0.1049150367E-01
                                                   Max.-Head-Change                         Max.-Flux-Residual
  Residual-Control   Outer-Iter.   Inner-Iter.     Column Row Layer    Maximum-Head-Change  Column Row Layer    Maximum-Flux-Residual          L2-NORM 
          0                11           1            32   31     1       0.1092289593E-04      18   34    2         0.5166536073E-03      0.9453199088E-02
          0                12           1            29   32     1       0.9186698851E-05      41   27    2         0.4713104732E-03      0.8564115321E-02

    ------------------------------------------------
       NWT REQUIRED           12 OUTER ITERATIONS 
       AND A TOTAL OF         12 INNER ITERATIONS.
    ------------------------------------------------

 OUTPUT CONTROL FOR STRESS PERIOD    1   TIME STEP  329
    SAVE HEAD FOR ALL LAYERS
 SOLVING FOR ZETA FOR LAYER     1 ZONE     2

     648 UPPER PART EQS.       629 LOWER PART EQS.    BAND WIDTH + 1 =   36
 STRESS PERIOD=  1 TIMESTEP=329 LAYER=  1 ZONE=  2 ACTIVE CELLS= 1277 NUMBER OF EQUATIONS=    1277
 SOLVING FOR ZETA FOR LAYER     2 ZONE     2

     517 UPPER PART EQS.       516 LOWER PART EQS.    BAND WIDTH + 1 =   32
 STRESS PERIOD=  1 TIMESTEP=329 LAYER=  2 ZONE=  2 ACTIVE CELLS= 1033 NUMBER OF EQUATIONS=    1033
 UBUDSV SAVING "      ZETASRF  1" ON UNIT 55 AT TIME STEP329, STRESS PERIOD    1

 HEAD WILL BE SAVED ON UNIT   51 AT END OF TIME STEP  329, STRESS PERIOD    1
 
 SOLVING FOR HEAD 
                                                   Max.-Head-Change                         Max.-Flux-Residual
  Residual-Control   Outer-Iter.   Inner-Iter.     Column Row Layer    Maximum-Head-Change  Column Row Layer    Maximum-Flux-Residual          L2-NORM 
          0                 1           1            32    8     1      -0.5318234876E-03      54   28    1        -0.4299678597E+00      0.3933973533E+01
          0                 2           1            23   49     2      -0.5602212214E-04      23   49    2        -0.8255222762E-02      0.1096940038E+00
          0                 3           1            26   23     1       0.3440566932E-04      36   52    2        -0.2041417661E-02      0.4058760097E-01
          0                 4           1            31   28     1       0.2237799387E-04      31   25    2         0.1273605746E-02      0.2358123002E-01
          0                 5           1            31   31     2       0.2739678809E-04      31   29    2         0.1160257344E-02      0.1717879828E-01
          0                 6           1            30   31     1       0.1691883774E-04      30   30    2         0.9084038862E-03      0.1377895582E-01
          0                 7           1            31   31     2       0.1878049805E-04      30   30    2         0.7660041447E-03      0.1170182837E-01
          0                 8           1            30   31     1       0.1225287494E-04      30   30    2         0.5977633521E-03      0.1036778018E-01
          0                 9           1            31   31     2       0.1233132699E-04      32   32    2         0.5165404776E-03      0.9226696342E-02
          0                10           1            29   32     1       0.9595735072E-05      29   32    1         0.4291983998E-03      0.8393783435E-02

    ------------------------------------------------
       NWT REQUIRED           10 OUTER ITERATIONS 
       AND A TOTAL OF         10 INNER ITERATIONS.
    ------------------------------------------------

 OUTPUT CONTROL FOR STRESS PERIOD    1   TIME STEP  330
    SAVE HEAD FOR ALL LAYERS
 SOLVING FOR ZETA FOR LAYER     1 ZONE     2

     640 UPPER PART EQS.       655 LOWER PART EQS.    BAND WIDTH + 1 =   32
 STRESS PERIOD=  1 TIMESTEP=330 LAYER=  1 ZONE=  2 ACTIVE CELLS= 1295 NUMBER OF EQUATIONS=    1295
 SOLVING FOR ZETA FOR LAYER     2 ZONE     2

     517 UPPER PART EQS.       516 LOWER PART EQS.    BAND WIDTH + 1 =   32
 STRESS PERIOD=  1 TIMESTEP=330 LAYER=  2 ZONE=  2 ACTIVE CELLS= 1033 NUMBER OF EQUATIONS=    1033
 UBUDSV SAVING "      ZETASRF  1" ON UNIT 55 AT TIME STEP330, STRESS PERIOD    1

 HEAD WILL BE SAVED ON UNIT   51 AT END OF TIME STEP  330, STRESS PERIOD    1
 
 SOLVING FOR HEAD 
                                                   Max.-Head-Change                         Max.-Flux-Residual
  Residual-Control   Outer-Iter.   Inner-Iter.     Column Row Layer    Maximum-Head-Change  Column Row Layer    Maximum-Flux-Residual          L2-NORM 
          0                 1           1             8   26     1      -0.5084408360E-03      54   27    1        -0.4299516023E+00      0.3902930416E+01
          0                 2           1            31   49     2      -0.5008559832E-04      31   49    2        -0.8852094385E-02      0.1030835805E+00
          0                 3           1            38   23     1       0.3625842206E-04      24   21    1         0.1900278967E-02      0.3754387682E-01
          0                 4           1            32   27     1       0.2309031869E-04      35   37    2         0.1309704750E-02      0.2454834698E-01
          0                 5           1            31   31     2       0.3272083803E-04      31   29    2         0.1189846798E-02      0.2049448403E-01
          0                 6           1            30   31     1       0.1951703724E-04      33   31    2         0.9937149167E-03      0.1810536022E-01
          0                 7           1            31   31     2       0.2371281350E-04      32   32    2         0.8823787002E-03      0.1612483584E-01
          0                 8           1            30   31     1       0.1506693244E-04      41   27    2         0.7735778146E-03      0.1459142971E-01
          0                 9           1            32   31     1       0.1686407564E-04      44   24    2         0.6791975489E-03      0.1306479469E-01
          0                10           1            29   32     1       0.1216511650E-04      41   27    2         0.6424184731E-03      0.1185810178E-01
                                                   Max.-Head-Change                         Max.-Flux-Residual
  Residual-Control   Outer-Iter.   Inner-Iter.     Column Row Layer    Maximum-Head-Change  Column Row Layer    Maximum-Flux-Residual          L2-NORM 
          0                11           1            32   31     1       0.1285170809E-04      44   24    2         0.5801270794E-03      0.1065367027E-01
          0                12           1            29   32     1       0.9914441973E-05      41   27    2         0.5339075091E-03      0.9666299249E-02

    ------------------------------------------------
       NWT REQUIRED           12 OUTER ITERATIONS 
       AND A TOTAL OF         12 INNER ITERATIONS.
    ------------------------------------------------

 OUTPUT CONTROL FOR STRESS PERIOD    1   TIME STEP  331
    SAVE HEAD FOR ALL LAYERS
 SOLVING FOR ZETA FOR LAYER     1 ZONE     2

     654 UPPER PART EQS.       632 LOWER PART EQS.    BAND WIDTH + 1 =   39
 STRESS PERIOD=  1 TIMESTEP=331 LAYER=  1 ZONE=  2 ACTIVE CELLS= 1286 NUMBER OF EQUATIONS=    1286
 SOLVING FOR ZETA FOR LAYER     2 ZONE     2

     517 UPPER PART EQS.       516 LOWER PART EQS.    BAND WIDTH + 1 =   32
 STRESS PERIOD=  1 TIMESTEP=331 LAYER=  2 ZONE=  2 ACTIVE CELLS= 1033 NUMBER OF EQUATIONS=    1033
 UBUDSV SAVING "      ZETASRF  1" ON UNIT 55 AT TIME STEP331, STRESS PERIOD    1

 HEAD WILL BE SAVED ON UNIT   51 AT END OF TIME STEP  331, STRESS PERIOD    1
 
 SOLVING FOR HEAD 
                                                   Max.-Head-Change                         Max.-Flux-Residual
  Residual-Control   Outer-Iter.   Inner-Iter.     Column Row Layer    Maximum-Head-Change  Column Row Layer    Maximum-Flux-Residual          L2-NORM 
          0                 1           1             8   32     1      -0.5377575082E-03      54   28    1        -0.4335382168E+00      0.3734158496E+01
          0                 2           1            39   49     2      -0.5072411295E-04      36   53    1        -0.7959194372E-02      0.1041234910E+00
          0                 3           1            37   24     1       0.3086782645E-04      36   52    2        -0.1926131320E-02      0.3737454555E-01
          0                 4           1            32   29     1       0.2024968096E-04      33   27    2         0.1157996096E-02      0.2148459741E-01
          0                 5           1            31   31     2       0.2537738662E-04      31   29    2         0.1051116195E-02      0.1535517382E-01
          0                 6           1            31   31     2       0.1442894402E-04      30   30    2         0.8070133905E-03      0.1205447553E-01
          0                 7           1            31   31     2       0.1722536902E-04      32   32    2         0.6777555112E-03      0.1010893338E-01
          0                 8           1            30   31     1       0.1019422810E-04      33   31    2         0.5188339276E-03      0.8886124242E-02
          0                 9           1            31   31     2       0.1096581218E-04      32   32    2         0.4462037296E-03      0.7876828576E-02
          0                10           1            30   31     1       0.8123780151E-05      34   30    2         0.3707594821E-03      0.7170856503E-02

    ------------------------------------------------
       NWT REQUIRED           10 OUTER ITERATIONS 
       AND A TOTAL OF         10 INNER ITERATIONS.
    ------------------------------------------------

 OUTPUT CONTROL FOR STRESS PERIOD    1   TIME STEP  332
    SAVE HEAD FOR ALL LAYERS
 SOLVING FOR ZETA FOR LAYER     1 ZONE     2

     640 UPPER PART EQS.       641 LOWER PART EQS.    BAND WIDTH + 1 =   25
 STRESS PERIOD=  1 TIMESTEP=332 LAYER=  1 ZONE=  2 ACTIVE CELLS= 1281 NUMBER OF EQUATIONS=    1281
 SOLVING FOR ZETA FOR LAYER     2 ZONE     2

     519 UPPER PART EQS.       516 LOWER PART EQS.    BAND WIDTH + 1 =   32
 STRESS PERIOD=  1 TIMESTEP=332 LAYER=  2 ZONE=  2 ACTIVE CELLS= 1035 NUMBER OF EQUATIONS=    1035
 UBUDSV SAVING "      ZETASRF  1" ON UNIT 55 AT TIME STEP332, STRESS PERIOD    1

 HEAD WILL BE SAVED ON UNIT   51 AT END OF TIME STEP  332, STRESS PERIOD    1
 
 SOLVING FOR HEAD 
                                                   Max.-Head-Change                         Max.-Flux-Residual
  Residual-Control   Outer-Iter.   Inner-Iter.     Column Row Layer    Maximum-Head-Change  Column Row Layer    Maximum-Flux-Residual          L2-NORM 
          0                 1           1             8   26     1      -0.5139175149E-03      54   27    1        -0.4333281819E+00      0.3880690474E+01
          0                 2           1            31   49     2      -0.4981259180E-04      31   49    2        -0.9006713524E-02      0.1021529691E+00
          0                 3           1            24   23     1       0.3547636725E-04      24   21    1         0.1921198915E-02      0.3638545546E-01
          0                 4           1            30   27     1       0.2178057697E-04      28   25    1         0.1239068231E-02      0.2338026493E-01
          0                 5           1            31   31     2       0.3088309413E-04      31   29    2         0.1137644741E-02      0.1933824413E-01
          0                 6           1            30   31     1       0.1847887412E-04      29   31    2         0.9465237224E-03      0.1697270696E-01
          0                 7           1            31   31     2       0.2274954122E-04      32   32    2         0.8384936688E-03      0.1512228535E-01
          0                 8           1            29   32     1       0.1401067927E-04      41   27    2         0.7065373687E-03      0.1363404886E-01
          0                 9           1            31   31     2       0.1636963201E-04      32   32    2         0.6261299065E-03      0.1222416812E-01
          0                10           1            29   32     1       0.1114123623E-04      41   27    2         0.5884139974E-03      0.1106858717E-01
                                                   Max.-Head-Change                         Max.-Flux-Residual
  Residual-Control   Outer-Iter.   Inner-Iter.     Column Row Layer    Maximum-Head-Change  Column Row Layer    Maximum-Flux-Residual          L2-NORM 
          0                11           1            32   31     1       0.1254716593E-04      39   29    2         0.4939974481E-03      0.9949063847E-02
          0                12           1            29   32     1       0.8997001213E-05      41   27    2         0.4899823233E-03      0.9013499758E-02

    ------------------------------------------------
       NWT REQUIRED           12 OUTER ITERATIONS 
       AND A TOTAL OF         12 INNER ITERATIONS.
    ------------------------------------------------

 OUTPUT CONTROL FOR STRESS PERIOD    1   TIME STEP  333
    SAVE HEAD FOR ALL LAYERS
 SOLVING FOR ZETA FOR LAYER     1 ZONE     2

     645 UPPER PART EQS.       643 LOWER PART EQS.    BAND WIDTH + 1 =   27
 STRESS PERIOD=  1 TIMESTEP=333 LAYER=  1 ZONE=  2 ACTIVE CELLS= 1288 NUMBER OF EQUATIONS=    1288
 SOLVING FOR ZETA FOR LAYER     2 ZONE     2

     519 UPPER PART EQS.       516 LOWER PART EQS.    BAND WIDTH + 1 =   32
 STRESS PERIOD=  1 TIMESTEP=333 LAYER=  2 ZONE=  2 ACTIVE CELLS= 1035 NUMBER OF EQUATIONS=    1035
 UBUDSV SAVING "      ZETASRF  1" ON UNIT 55 AT TIME STEP333, STRESS PERIOD    1

 HEAD WILL BE SAVED ON UNIT   51 AT END OF TIME STEP  333, STRESS PERIOD    1
 
 SOLVING FOR HEAD 
                                                   Max.-Head-Change                         Max.-Flux-Residual
  Residual-Control   Outer-Iter.   Inner-Iter.     Column Row Layer    Maximum-Head-Change  Column Row Layer    Maximum-Flux-Residual          L2-NORM 
          0                 1           1            32    8     1      -0.5444289054E-03      54   34    1        -0.4371186346E+00      0.3784588145E+01
          0                 2           1            39   49     2      -0.5559872434E-04      39   49    2        -0.8160492094E-02      0.1076161271E+00
          0                 3           1            36   23     1       0.3197115354E-04      36   52    2        -0.2108488272E-02      0.3931947055E-01
          0                 4           1            32   29     1       0.2182246953E-04      31   25    2         0.1231316804E-02      0.2282963118E-01
          0                 5           1            32   32     2       0.2643594229E-04      32   32    2         0.1116871891E-02      0.1667387275E-01
          0                 6           1            31   31     2       0.1644417209E-04      33   31    2         0.8794755473E-03      0.1340257810E-01
          0                 7           1            31   31     2       0.1846995379E-04      32   32    2         0.7443165691E-03      0.1138122739E-01
          0                 8           1            30   31     1       0.1174234300E-04      30   30    2         0.5800514098E-03      0.1009114239E-01
          0                 9           1            31   31     2       0.1234208960E-04      32   32    2         0.5026024880E-03      0.8944794736E-02
          0                10           1            30   31     1       0.9083214106E-05      42   30    2         0.4212370718E-03      0.8158313190E-02

    ------------------------------------------------
       NWT REQUIRED           10 OUTER ITERATIONS 
       AND A TOTAL OF         10 INNER ITERATIONS.
    ------------------------------------------------

 OUTPUT CONTROL FOR STRESS PERIOD    1   TIME STEP  334
    SAVE HEAD FOR ALL LAYERS
 SOLVING FOR ZETA FOR LAYER     1 ZONE     2

     639 UPPER PART EQS.       644 LOWER PART EQS.    BAND WIDTH + 1 =   26
 STRESS PERIOD=  1 TIMESTEP=334 LAYER=  1 ZONE=  2 ACTIVE CELLS= 1283 NUMBER OF EQUATIONS=    1283
 SOLVING FOR ZETA FOR LAYER     2 ZONE     2

     521 UPPER PART EQS.       516 LOWER PART EQS.    BAND WIDTH + 1 =   32
 STRESS PERIOD=  1 TIMESTEP=334 LAYER=  2 ZONE=  2 ACTIVE CELLS= 1037 NUMBER OF EQUATIONS=    1037
 UBUDSV SAVING "      ZETASRF  1" ON UNIT 55 AT TIME STEP334, STRESS PERIOD    1

 HEAD WILL BE SAVED ON UNIT   51 AT END OF TIME STEP  334, STRESS PERIOD    1
 
 SOLVING FOR HEAD 
                                                   Max.-Head-Change                         Max.-Flux-Residual
  Residual-Control   Outer-Iter.   Inner-Iter.     Column Row Layer    Maximum-Head-Change  Column Row Layer    Maximum-Flux-Residual          L2-NORM 
          0                 1           1             8   26     1      -0.5191172472E-03      54   27    1        -0.4367799385E+00      0.3972229115E+01
          0                 2           1            31   49     2      -0.4497767156E-04      31   49    2        -0.8299353663E-02      0.9905995338E-01
          0                 3           1            38   23     1       0.3289271010E-04      24   21    1         0.1668300144E-02      0.3427330968E-01
          0                 4           1            33   28     1       0.2073528338E-04      41   23    2         0.1190738850E-02      0.2213897320E-01
          0                 5           1            31   31     2       0.2912485108E-04      31   29    2         0.1070336141E-02      0.1836395558E-01
          0                 6           1            30   31     1       0.1763722571E-04      33   31    2         0.8974641711E-03      0.1618315277E-01
          0                 7           1            31   31     2       0.2118873248E-04      32   32    2         0.7918960732E-03      0.1439409501E-01
          0                 8           1            30   31     1       0.1355137300E-04      41   27    2         0.6715260175E-03      0.1302216611E-01
          0                 9           1            32   31     1       0.1506756810E-04      32   32    2         0.5912203453E-03      0.1165358895E-01
          0                10           1            29   32     1       0.1090070176E-04      41   27    2         0.5513614359E-03      0.1058050864E-01
                                                   Max.-Head-Change                         Max.-Flux-Residual
  Residual-Control   Outer-Iter.   Inner-Iter.     Column Row Layer    Maximum-Head-Change  Column Row Layer    Maximum-Flux-Residual          L2-NORM 
          0                11           1            32   31     1       0.1142866466E-04      43   21    2         0.5078789969E-03      0.9502555584E-02
          0                12           1            29   32     1       0.8892571231E-05      42   26    2         0.4550883917E-03      0.8624863604E-02

    ------------------------------------------------
       NWT REQUIRED           12 OUTER ITERATIONS 
       AND A TOTAL OF         12 INNER ITERATIONS.
    ------------------------------------------------

 OUTPUT CONTROL FOR STRESS PERIOD    1   TIME STEP  335
    SAVE HEAD FOR ALL LAYERS
 SOLVING FOR ZETA FOR LAYER     1 ZONE     2

     640 UPPER PART EQS.       629 LOWER PART EQS.    BAND WIDTH + 1 =   28
 STRESS PERIOD=  1 TIMESTEP=335 LAYER=  1 ZONE=  2 ACTIVE CELLS= 1269 NUMBER OF EQUATIONS=    1269
 SOLVING FOR ZETA FOR LAYER     2 ZONE     2

     525 UPPER PART EQS.       516 LOWER PART EQS.    BAND WIDTH + 1 =   32
 STRESS PERIOD=  1 TIMESTEP=335 LAYER=  2 ZONE=  2 ACTIVE CELLS= 1041 NUMBER OF EQUATIONS=    1041
 UBUDSV SAVING "      ZETASRF  1" ON UNIT 55 AT TIME STEP335, STRESS PERIOD    1

 HEAD WILL BE SAVED ON UNIT   51 AT END OF TIME STEP  335, STRESS PERIOD    1
 
 SOLVING FOR HEAD 
                                                   Max.-Head-Change                         Max.-Flux-Residual
  Residual-Control   Outer-Iter.   Inner-Iter.     Column Row Layer    Maximum-Head-Change  Column Row Layer    Maximum-Flux-Residual          L2-NORM 
          0                 1           1             8   32     1      -0.5508180805E-03       8   28    1        -0.4406161386E+00      0.4023994143E+01
          0                 2           1            23   49     2      -0.5364796979E-04      23   49    2        -0.8105350619E-02      0.1073817250E+00
          0                 3           1            26   23     1       0.3210821173E-04      36   52    2        -0.2006806658E-02      0.3871119201E-01
          0                 4           1            32   29     1       0.2107506453E-04      31   25    2         0.1196370975E-02      0.2224783377E-01
          0                 5           1            31   31     2       0.2569325584E-04      31   29    2         0.1091801831E-02      0.1605009548E-01
          0                 6           1            30   31     1       0.1569069584E-04      30   30    2         0.8486144537E-03      0.1274187974E-01
          0                 7           1            31   31     2       0.1750788848E-04      30   30    2         0.7120603458E-03      0.1075102603E-01
          0                 8           1            30   31     1       0.1128923948E-04      30   30    2         0.5533537511E-03      0.9482356812E-02
          0                 9           1            31   31     2       0.1139095808E-04      32   32    2         0.4758195814E-03      0.8420950912E-02
          0                10           1            29   32     1       0.8872897359E-05      17   31    2         0.4029692675E-03      0.7657189057E-02

    ------------------------------------------------
       NWT REQUIRED           10 OUTER ITERATIONS 
       AND A TOTAL OF         10 INNER ITERATIONS.
    ------------------------------------------------

 OUTPUT CONTROL FOR STRESS PERIOD    1   TIME STEP  336
    SAVE HEAD FOR ALL LAYERS
 SOLVING FOR ZETA FOR LAYER     1 ZONE     2

     631 UPPER PART EQS.       655 LOWER PART EQS.    BAND WIDTH + 1 =   41
 STRESS PERIOD=  1 TIMESTEP=336 LAYER=  1 ZONE=  2 ACTIVE CELLS= 1286 NUMBER OF EQUATIONS=    1286
 SOLVING FOR ZETA FOR LAYER     2 ZONE     2

     525 UPPER PART EQS.       516 LOWER PART EQS.    BAND WIDTH + 1 =   32
 STRESS PERIOD=  1 TIMESTEP=336 LAYER=  2 ZONE=  2 ACTIVE CELLS= 1041 NUMBER OF EQUATIONS=    1041
 UBUDSV SAVING "      ZETASRF  1" ON UNIT 55 AT TIME STEP336, STRESS PERIOD    1

 HEAD WILL BE SAVED ON UNIT   51 AT END OF TIME STEP  336, STRESS PERIOD    1
 
 SOLVING FOR HEAD 
                                                   Max.-Head-Change                         Max.-Flux-Residual
  Residual-Control   Outer-Iter.   Inner-Iter.     Column Row Layer    Maximum-Head-Change  Column Row Layer    Maximum-Flux-Residual          L2-NORM 
          0                 1           1             8   26     1      -0.5239508165E-03      54   27    1        -0.4402364767E+00      0.4041624310E+01
          0                 2           1            31   49     2      -0.4800823342E-04      31   49    2        -0.8646354376E-02      0.1012760196E+00
          0                 3           1            40   39     1       0.3233563818E-04      29   51    2        -0.1814954246E-02      0.3469015505E-01
          0                 4           1            30   27     1       0.2077903168E-04      35   37    2         0.1187268835E-02      0.2249374832E-01
          0                 5           1            32   32     2       0.2883391201E-04      32   32    2         0.1070550719E-02      0.1866878669E-01
          0                 6           1            30   31     1       0.1812761347E-04      33   31    2         0.9060055338E-03      0.1653645330E-01
          0                 7           1            31   31     2       0.2076142372E-04      32   32    2         0.7996451211E-03      0.1472398473E-01
          0                 8           1            30   31     1       0.1419402820E-04      41   27    2         0.6900889614E-03      0.1334750130E-01
          0                 9           1            32   31     1       0.1478939284E-04      18   34    2         0.6523622264E-03      0.1196044324E-01
          0                10           1            29   32     1       0.1146174072E-04      41   27    2         0.5716880789E-03      0.1085972747E-01
                                                   Max.-Head-Change                         Max.-Flux-Residual
  Residual-Control   Outer-Iter.   Inner-Iter.     Column Row Layer    Maximum-Head-Change  Column Row Layer    Maximum-Flux-Residual          L2-NORM 
          0                11           1            32   31     1       0.1134040826E-04      44   24    2         0.5384053595E-03      0.9769966019E-02
          0                12           1            29   32     1       0.9296459216E-05      41   27    2         0.4748254639E-03      0.8861368056E-02

    ------------------------------------------------
       NWT REQUIRED           12 OUTER ITERATIONS 
       AND A TOTAL OF         12 INNER ITERATIONS.
    ------------------------------------------------

 OUTPUT CONTROL FOR STRESS PERIOD    1   TIME STEP  337
    SAVE HEAD FOR ALL LAYERS
 SOLVING FOR ZETA FOR LAYER     1 ZONE     2

     639 UPPER PART EQS.       635 LOWER PART EQS.    BAND WIDTH + 1 =   29
 STRESS PERIOD=  1 TIMESTEP=337 LAYER=  1 ZONE=  2 ACTIVE CELLS= 1274 NUMBER OF EQUATIONS=    1274
 SOLVING FOR ZETA FOR LAYER     2 ZONE     2

     525 UPPER PART EQS.       516 LOWER PART EQS.    BAND WIDTH + 1 =   32
 STRESS PERIOD=  1 TIMESTEP=337 LAYER=  2 ZONE=  2 ACTIVE CELLS= 1041 NUMBER OF EQUATIONS=    1041
 UBUDSV SAVING "      ZETASRF  1" ON UNIT 55 AT TIME STEP337, STRESS PERIOD    1

 HEAD WILL BE SAVED ON UNIT   51 AT END OF TIME STEP  337, STRESS PERIOD    1
 
 SOLVING FOR HEAD 
                                                   Max.-Head-Change                         Max.-Flux-Residual
  Residual-Control   Outer-Iter.   Inner-Iter.     Column Row Layer    Maximum-Head-Change  Column Row Layer    Maximum-Flux-Residual          L2-NORM 
          0                 1           1             8   32     1      -0.5569826199E-03      54   28    1        -0.4441498145E+00      0.3800275577E+01
          0                 2           1            39   49     2      -0.5242591954E-04      36   53    1        -0.8276786247E-02      0.1056119526E+00
          0                 3           1            38   25     1       0.3160201749E-04      36   52    2        -0.2017793169E-02      0.3771910118E-01
          0                 4           1            32   29     1       0.2030831532E-04      34   26    2         0.1162132957E-02      0.2156082523E-01
          0                 5           1            31   31     2       0.2474774666E-04      31   29    2         0.1047838363E-02      0.1538855975E-01
          0                 6           1            31   31     2       0.1476935811E-04      30   30    2         0.8063240108E-03      0.1207814497E-01
          0                 7           1            31   31     2       0.1669213662E-04      32   32    2         0.6792000729E-03      0.1012063720E-01
          0                 8           1            30   31     1       0.1060084866E-04      30   30    2         0.5223902077E-03      0.8897931488E-02
          0                 9           1            31   31     2       0.1068950125E-04      32   32    2         0.4494504155E-03      0.7890822172E-02
          0                10           1            30   31     1       0.8400004151E-05      30   30    2         0.3712885868E-03      0.7179276781E-02

    ------------------------------------------------
       NWT REQUIRED           10 OUTER ITERATIONS 
       AND A TOTAL OF         10 INNER ITERATIONS.
    ------------------------------------------------

 OUTPUT CONTROL FOR STRESS PERIOD    1   TIME STEP  338
    SAVE HEAD FOR ALL LAYERS
 SOLVING FOR ZETA FOR LAYER     1 ZONE     2

     628 UPPER PART EQS.       641 LOWER PART EQS.    BAND WIDTH + 1 =   34
 STRESS PERIOD=  1 TIMESTEP=338 LAYER=  1 ZONE=  2 ACTIVE CELLS= 1269 NUMBER OF EQUATIONS=    1269
 SOLVING FOR ZETA FOR LAYER     2 ZONE     2

     525 UPPER PART EQS.       516 LOWER PART EQS.    BAND WIDTH + 1 =   32
 STRESS PERIOD=  1 TIMESTEP=338 LAYER=  2 ZONE=  2 ACTIVE CELLS= 1041 NUMBER OF EQUATIONS=    1041
 UBUDSV SAVING "      ZETASRF  1" ON UNIT 55 AT TIME STEP338, STRESS PERIOD    1

 HEAD WILL BE SAVED ON UNIT   51 AT END OF TIME STEP  338, STRESS PERIOD    1
 
 SOLVING FOR HEAD 
                                                   Max.-Head-Change                         Max.-Flux-Residual
  Residual-Control   Outer-Iter.   Inner-Iter.     Column Row Layer    Maximum-Head-Change  Column Row Layer    Maximum-Flux-Residual          L2-NORM 
          0                 1           1             8   26     1      -0.5295325275E-03      54   27    1        -0.4436338423E+00      0.4187421146E+01
          0                 2           1            31   49     2      -0.4880512895E-04      31   49    2        -0.8797855280E-02      0.1018302221E+00
          0                 3           1            24   23     1       0.3453786302E-04      24   21    1         0.1887298364E-02      0.3606832584E-01
          0                 4           1            30   27     1       0.2118189331E-04      28   25    1         0.1206048840E-02      0.2328347815E-01
          0                 5           1            31   31     2       0.3042035720E-04      31   29    2         0.1104513939E-02      0.1941205137E-01
          0                 6           1            30   31     1       0.1836018186E-04      30   30    2         0.9337567476E-03      0.1717206408E-01
          0                 7           1            31   31     2       0.2261982339E-04      32   32    2         0.8310796048E-03      0.1530252577E-01
          0                 8           1            29   32     1       0.1403734591E-04      41   27    2         0.7003779082E-03      0.1385230346E-01
          0                 9           1            31   31     2       0.1631100698E-04      32   32    2         0.6260158925E-03      0.1238746511E-01
          0                10           1            29   32     1       0.1123821478E-04      41   27    2         0.5820972922E-03      0.1124807183E-01
                                                   Max.-Head-Change                         Max.-Flux-Residual
  Residual-Control   Outer-Iter.   Inner-Iter.     Column Row Layer    Maximum-Head-Change  Column Row Layer    Maximum-Flux-Residual          L2-NORM 
          0                11           1            32   31     1       0.1250188572E-04      39   29    2         0.4982528480E-03      0.1008606817E-01
          0                12           1            29   32     1       0.9108534480E-05      41   27    2         0.4836582676E-03      0.9159445480E-02

    ------------------------------------------------
       NWT REQUIRED           12 OUTER ITERATIONS 
       AND A TOTAL OF         12 INNER ITERATIONS.
    ------------------------------------------------

 OUTPUT CONTROL FOR STRESS PERIOD    1   TIME STEP  339
    SAVE HEAD FOR ALL LAYERS
 SOLVING FOR ZETA FOR LAYER     1 ZONE     2

     641 UPPER PART EQS.       640 LOWER PART EQS.    BAND WIDTH + 1 =   28
 STRESS PERIOD=  1 TIMESTEP=339 LAYER=  1 ZONE=  2 ACTIVE CELLS= 1281 NUMBER OF EQUATIONS=    1281
 SOLVING FOR ZETA FOR LAYER     2 ZONE     2

     533 UPPER PART EQS.       516 LOWER PART EQS.    BAND WIDTH + 1 =   34
 STRESS PERIOD=  1 TIMESTEP=339 LAYER=  2 ZONE=  2 ACTIVE CELLS= 1049 NUMBER OF EQUATIONS=    1049
 UBUDSV SAVING "      ZETASRF  1" ON UNIT 55 AT TIME STEP339, STRESS PERIOD    1

 HEAD WILL BE SAVED ON UNIT   51 AT END OF TIME STEP  339, STRESS PERIOD    1
 
 SOLVING FOR HEAD 
                                                   Max.-Head-Change                         Max.-Flux-Residual
  Residual-Control   Outer-Iter.   Inner-Iter.     Column Row Layer    Maximum-Head-Change  Column Row Layer    Maximum-Flux-Residual          L2-NORM 
          0                 1           1            32    8     1      -0.5631940175E-03       8   28    1        -0.4477327282E+00      0.3850682107E+01
          0                 2           1            23   49     2      -0.5290082349E-04      36   53    1        -0.8370474005E-02      0.1046060375E+00
          0                 3           1            26   23     1       0.2987302635E-04      36   52    2        -0.2008257339E-02      0.3686016879E-01
          0                 4           1            32   29     1       0.1982358530E-04      31   25    2         0.1130030116E-02      0.2109322101E-01
          0                 5           1            31   31     2       0.2447565058E-04      31   29    2         0.1023370623E-02      0.1516748075E-01
          0                 6           1            30   31     1       0.1468300381E-04      30   30    2         0.8010976227E-03      0.1200988946E-01
          0                 7           1            31   31     2       0.1662174364E-04      32   32    2         0.6692048809E-03      0.1013744852E-01
          0                 8           1            30   31     1       0.1060350208E-04      30   30    2         0.5213466886E-03      0.8942384591E-02
          0                 9           1            31   31     2       0.1062748798E-04      32   32    2         0.4446781801E-03      0.7951163611E-02
          0                10           1            30   31     1       0.8444718381E-05      17   31    2         0.3732902281E-03      0.7228197686E-02

    ------------------------------------------------
       NWT REQUIRED           10 OUTER ITERATIONS 
       AND A TOTAL OF         10 INNER ITERATIONS.
    ------------------------------------------------

 OUTPUT CONTROL FOR STRESS PERIOD    1   TIME STEP  340
    SAVE HEAD FOR ALL LAYERS
 SOLVING FOR ZETA FOR LAYER     1 ZONE     2

     631 UPPER PART EQS.       648 LOWER PART EQS.    BAND WIDTH + 1 =   38
 STRESS PERIOD=  1 TIMESTEP=340 LAYER=  1 ZONE=  2 ACTIVE CELLS= 1279 NUMBER OF EQUATIONS=    1279
 SOLVING FOR ZETA FOR LAYER     2 ZONE     2

     533 UPPER PART EQS.       516 LOWER PART EQS.    BAND WIDTH + 1 =   34
 STRESS PERIOD=  1 TIMESTEP=340 LAYER=  2 ZONE=  2 ACTIVE CELLS= 1049 NUMBER OF EQUATIONS=    1049
 UBUDSV SAVING "      ZETASRF  1" ON UNIT 55 AT TIME STEP340, STRESS PERIOD    1

 HEAD WILL BE SAVED ON UNIT   51 AT END OF TIME STEP  340, STRESS PERIOD    1
 
 SOLVING FOR HEAD 
                                                   Max.-Head-Change                         Max.-Flux-Residual
  Residual-Control   Outer-Iter.   Inner-Iter.     Column Row Layer    Maximum-Head-Change  Column Row Layer    Maximum-Flux-Residual          L2-NORM 
          0                 1           1             8   26     1      -0.5344641413E-03      54   27    1        -0.4470223407E+00      0.4070492136E+01
          0                 2           1            31   49     2      -0.4415616274E-04      31   49    2        -0.8135466536E-02      0.1003548901E+00
          0                 3           1            38   23     1       0.3286928219E-04      39   41    2         0.1665621569E-02      0.3371155854E-01
          0                 4           1            33   28     1       0.2026693899E-04      42   26    2         0.1146986953E-02      0.2177041138E-01
          0                 5           1            32   32     2       0.2817975544E-04      31   29    2         0.1044046856E-02      0.1802956783E-01
          0                 6           1            31   31     2       0.1725839545E-04      33   31    2         0.8771695364E-03      0.1591085669E-01
          0                 7           1            31   31     2       0.2051504341E-04      32   32    2         0.7783298970E-03      0.1417422668E-01
          0                 8           1            30   31     1       0.1337839618E-04      41   27    2         0.6532761843E-03      0.1283083972E-01
          0                 9           1            32   31     1       0.1461952707E-04      44   24    2         0.5892177912E-03      0.1149993981E-01
          0                10           1            29   32     1       0.1080072623E-04      41   27    2         0.5371777737E-03      0.1043677107E-01
                                                   Max.-Head-Change                         Max.-Flux-Residual
  Residual-Control   Outer-Iter.   Inner-Iter.     Column Row Layer    Maximum-Head-Change  Column Row Layer    Maximum-Flux-Residual          L2-NORM 
          0                11           1            32   31     1       0.1113770655E-04      44   24    2         0.4988296349E-03      0.9388340438E-02
          0                12           1            29   32     1       0.8797440241E-05      41   23    2         0.4487392539E-03      0.8514111788E-02

    ------------------------------------------------
       NWT REQUIRED           12 OUTER ITERATIONS 
       AND A TOTAL OF         12 INNER ITERATIONS.
    ------------------------------------------------

 OUTPUT CONTROL FOR STRESS PERIOD    1   TIME STEP  341
    SAVE HEAD FOR ALL LAYERS
 SOLVING FOR ZETA FOR LAYER     1 ZONE     2

     632 UPPER PART EQS.       634 LOWER PART EQS.    BAND WIDTH + 1 =   31
 STRESS PERIOD=  1 TIMESTEP=341 LAYER=  1 ZONE=  2 ACTIVE CELLS= 1266 NUMBER OF EQUATIONS=    1266
 SOLVING FOR ZETA FOR LAYER     2 ZONE     2

     533 UPPER PART EQS.       520 LOWER PART EQS.    BAND WIDTH + 1 =   32
 STRESS PERIOD=  1 TIMESTEP=341 LAYER=  2 ZONE=  2 ACTIVE CELLS= 1053 NUMBER OF EQUATIONS=    1053
 UBUDSV SAVING "      ZETASRF  1" ON UNIT 55 AT TIME STEP341, STRESS PERIOD    1

 HEAD WILL BE SAVED ON UNIT   51 AT END OF TIME STEP  341, STRESS PERIOD    1
 
 SOLVING FOR HEAD 
                                                   Max.-Head-Change                         Max.-Flux-Residual
  Residual-Control   Outer-Iter.   Inner-Iter.     Column Row Layer    Maximum-Head-Change  Column Row Layer    Maximum-Flux-Residual          L2-NORM 
          0                 1           1             8   32     1      -0.5697073412E-03       8   28    1        -0.4512216150E+00      0.3957284382E+01
          0                 2           1            23   49     2      -0.5410319154E-04      36   53    1        -0.8428653159E-02      0.1070700632E+00
          0                 3           1            26   23     1       0.3121582807E-04      36   52    2        -0.2011902286E-02      0.3794711563E-01
          0                 4           1            31   28     1       0.2067216742E-04      31   25    2         0.1168415304E-02      0.2183000425E-01
          0                 5           1            31   31     2       0.2493321098E-04      31   29    2         0.1064387822E-02      0.1576000655E-01
          0                 6           1            30   31     1       0.1553235184E-04      30   30    2         0.8316979137E-03      0.1254019036E-01
          0                 7           1            31   31     2       0.1684644165E-04      32   32    2         0.6978364746E-03      0.1059795595E-01
          0                 8           1            30   31     1       0.1147338434E-04      30   30    2         0.5461114048E-03      0.9357695598E-02
          0                 9           1            31   31     2       0.1070884298E-04      32   32    2         0.4672471423E-03      0.8333083670E-02
          0                10           1            29   32     1       0.9212883663E-05      17   31    2         0.3938671218E-03      0.7558741434E-02

    ------------------------------------------------
       NWT REQUIRED           10 OUTER ITERATIONS 
       AND A TOTAL OF         10 INNER ITERATIONS.
    ------------------------------------------------

 OUTPUT CONTROL FOR STRESS PERIOD    1   TIME STEP  342
    SAVE HEAD FOR ALL LAYERS
 SOLVING FOR ZETA FOR LAYER     1 ZONE     2

     625 UPPER PART EQS.       639 LOWER PART EQS.    BAND WIDTH + 1 =   35
 STRESS PERIOD=  1 TIMESTEP=342 LAYER=  1 ZONE=  2 ACTIVE CELLS= 1264 NUMBER OF EQUATIONS=    1264
 SOLVING FOR ZETA FOR LAYER     2 ZONE     2

     533 UPPER PART EQS.       524 LOWER PART EQS.    BAND WIDTH + 1 =   30
 STRESS PERIOD=  1 TIMESTEP=342 LAYER=  2 ZONE=  2 ACTIVE CELLS= 1057 NUMBER OF EQUATIONS=    1057
 UBUDSV SAVING "      ZETASRF  1" ON UNIT 55 AT TIME STEP342, STRESS PERIOD    1

 HEAD WILL BE SAVED ON UNIT   51 AT END OF TIME STEP  342, STRESS PERIOD    1
 
 SOLVING FOR HEAD 
                                                   Max.-Head-Change                         Max.-Flux-Residual
  Residual-Control   Outer-Iter.   Inner-Iter.     Column Row Layer    Maximum-Head-Change  Column Row Layer    Maximum-Flux-Residual          L2-NORM 
          0                 1           1             8   26     1      -0.5395934490E-03      54   27    1        -0.4504720856E+00      0.4007414290E+01
          0                 2           1            31   49     2      -0.4659387597E-04      31   49    2        -0.8413831031E-02      0.9911722467E-01
          0                 3           1            24   23     1       0.3048515627E-04      29   51    2        -0.1766103685E-02      0.3335127139E-01
          0                 4           1            30   27     1       0.1978198081E-04      35   37    2         0.1116958000E-02      0.2138951957E-01
          0                 5           1            31   31     2       0.2720772455E-04      32   32    2         0.1015873633E-02      0.1771117600E-01
          0                 6           1            30   31     1       0.1715419471E-04      30   30    2         0.8621433392E-03      0.1564817541E-01
          0                 7           1            31   31     2       0.2001172819E-04      32   32    2         0.7613870720E-03      0.1394260698E-01
          0                 8           1            30   31     1       0.1323503122E-04      34   30    2         0.6352605770E-03      0.1263528336E-01
          0                 9           1            32   31     1       0.1435734445E-04      32   32    2         0.5709833320E-03      0.1131702226E-01
          0                10           1            29   32     1       0.1061349948E-04      41   27    2         0.5232725001E-03      0.1028295174E-01
                                                   Max.-Head-Change                         Max.-Flux-Residual
  Residual-Control   Outer-Iter.   Inner-Iter.     Column Row Layer    Maximum-Head-Change  Column Row Layer    Maximum-Flux-Residual          L2-NORM 
          0                11           1            32   31     1       0.1101102748E-04      43   21    2         0.4631479322E-03      0.9239290019E-02
          0                12           1            29   32     1       0.8587748922E-05      41   23    2         0.4377764706E-03      0.8390533965E-02

    ------------------------------------------------
       NWT REQUIRED           12 OUTER ITERATIONS 
       AND A TOTAL OF         12 INNER ITERATIONS.
    ------------------------------------------------

 OUTPUT CONTROL FOR STRESS PERIOD    1   TIME STEP  343
    SAVE HEAD FOR ALL LAYERS
 SOLVING FOR ZETA FOR LAYER     1 ZONE     2

     635 UPPER PART EQS.       623 LOWER PART EQS.    BAND WIDTH + 1 =   28
 STRESS PERIOD=  1 TIMESTEP=343 LAYER=  1 ZONE=  2 ACTIVE CELLS= 1258 NUMBER OF EQUATIONS=    1258
 SOLVING FOR ZETA FOR LAYER     2 ZONE     2

     533 UPPER PART EQS.       524 LOWER PART EQS.    BAND WIDTH + 1 =   30
 STRESS PERIOD=  1 TIMESTEP=343 LAYER=  2 ZONE=  2 ACTIVE CELLS= 1057 NUMBER OF EQUATIONS=    1057
 UBUDSV SAVING "      ZETASRF  1" ON UNIT 55 AT TIME STEP343, STRESS PERIOD    1

 HEAD WILL BE SAVED ON UNIT   51 AT END OF TIME STEP  343, STRESS PERIOD    1
 
 SOLVING FOR HEAD 
                                                   Max.-Head-Change                         Max.-Flux-Residual
  Residual-Control   Outer-Iter.   Inner-Iter.     Column Row Layer    Maximum-Head-Change  Column Row Layer    Maximum-Flux-Residual          L2-NORM 
          0                 1           1             8   32     1      -0.5759184903E-03      54   28    1        -0.4547157385E+00      0.4194199715E+01
          0                 2           1            39   49     2      -0.5061020618E-04      36   53    1        -0.8580282434E-02      0.1062295834E+00
          0                 3           1            37   24     1       0.3041602642E-04      36   52    2        -0.2013527910E-02      0.3689571509E-01
          0                 4           1            33   28     1       0.1950592857E-04      34   26    2         0.1113283370E-02      0.2086704374E-01
          0                 5           1            31   31     2       0.2358575064E-04      31   29    2         0.1003888100E-02      0.1478308715E-01
          0                 6           1            31   31     2       0.1410458433E-04      30   30    2         0.7726337453E-03      0.1153019949E-01
          0                 7           1            31   31     2       0.1587466524E-04      32   32    2         0.6488136614E-03      0.9615189570E-02
          0                 8           1            30   31     1       0.1003556358E-04      30   30    2         0.4984640847E-03      0.8435335153E-02
          0                 9           1            32   31     1       0.1026412497E-04      32   32    2         0.4272440900E-03      0.7471016525E-02
          0                10           1            30   31     1       0.7846556362E-05      30   30    2         0.3519564229E-03      0.6801233037E-02

    ------------------------------------------------
       NWT REQUIRED           10 OUTER ITERATIONS 
       AND A TOTAL OF         10 INNER ITERATIONS.
    ------------------------------------------------

 OUTPUT CONTROL FOR STRESS PERIOD    1   TIME STEP  344
    SAVE HEAD FOR ALL LAYERS
 SOLVING FOR ZETA FOR LAYER     1 ZONE     2

     624 UPPER PART EQS.       640 LOWER PART EQS.    BAND WIDTH + 1 =   33
 STRESS PERIOD=  1 TIMESTEP=344 LAYER=  1 ZONE=  2 ACTIVE CELLS= 1264 NUMBER OF EQUATIONS=    1264
 SOLVING FOR ZETA FOR LAYER     2 ZONE     2

     533 UPPER PART EQS.       526 LOWER PART EQS.    BAND WIDTH + 1 =   30
 STRESS PERIOD=  1 TIMESTEP=344 LAYER=  2 ZONE=  2 ACTIVE CELLS= 1059 NUMBER OF EQUATIONS=    1059
 UBUDSV SAVING "      ZETASRF  1" ON UNIT 55 AT TIME STEP344, STRESS PERIOD    1

 HEAD WILL BE SAVED ON UNIT   51 AT END OF TIME STEP  344, STRESS PERIOD    1
 
 SOLVING FOR HEAD 
                                                   Max.-Head-Change                         Max.-Flux-Residual
  Residual-Control   Outer-Iter.   Inner-Iter.     Column Row Layer    Maximum-Head-Change  Column Row Layer    Maximum-Flux-Residual          L2-NORM 
          0                 1           1             8   26     1      -0.5451569164E-03      54   27    1        -0.4538465177E+00      0.4218365856E+01
          0                 2           1            31   49     2      -0.4566816184E-04      31   49    2        -0.8349775178E-02      0.1020742623E+00
          0                 3           1            24   23     1       0.3360745408E-04      24   21    1         0.1818922419E-02      0.3498217957E-01
          0                 4           1            32   27     1       0.2054664298E-04      42   26    2         0.1171327334E-02      0.2266381038E-01
          0                 5           1            31   31     2       0.2942581168E-04      31   29    2         0.1071103842E-02      0.1896608513E-01
          0                 6           1            30   31     1       0.1795247366E-04      30   30    2         0.9077299543E-03      0.1681892485E-01
          0                 7           1            31   31     2       0.2162966340E-04      32   32    2         0.8113125782E-03      0.1499575257E-01
          0                 8           1            30   31     1       0.1398808552E-04      17   35    2         0.6819384419E-03      0.1358389280E-01
          0                 9           1            32   31     1       0.1551278246E-04      17   35    2         0.6378937766E-03      0.1216410332E-01
          0                10           1            29   32     1       0.1132301725E-04      17   35    2         0.5707950215E-03      0.1104467207E-01
                                                   Max.-Head-Change                         Max.-Flux-Residual
  Residual-Control   Outer-Iter.   Inner-Iter.     Column Row Layer    Maximum-Head-Change  Column Row Layer    Maximum-Flux-Residual          L2-NORM 
          0                11           1            32   31     1       0.1189327820E-04      17   35    2         0.5225599599E-03      0.9924300489E-02
          0                12           1            29   32     1       0.9219964667E-05      41   23    2         0.4757357542E-03      0.9007833844E-02

    ------------------------------------------------
       NWT REQUIRED           12 OUTER ITERATIONS 
       AND A TOTAL OF         12 INNER ITERATIONS.
    ------------------------------------------------

 OUTPUT CONTROL FOR STRESS PERIOD    1   TIME STEP  345
    SAVE HEAD FOR ALL LAYERS
 SOLVING FOR ZETA FOR LAYER     1 ZONE     2

     633 UPPER PART EQS.       626 LOWER PART EQS.    BAND WIDTH + 1 =   26
 STRESS PERIOD=  1 TIMESTEP=345 LAYER=  1 ZONE=  2 ACTIVE CELLS= 1259 NUMBER OF EQUATIONS=    1259
 SOLVING FOR ZETA FOR LAYER     2 ZONE     2

     533 UPPER PART EQS.       528 LOWER PART EQS.    BAND WIDTH + 1 =   30
 STRESS PERIOD=  1 TIMESTEP=345 LAYER=  2 ZONE=  2 ACTIVE CELLS= 1061 NUMBER OF EQUATIONS=    1061
 UBUDSV SAVING "      ZETASRF  1" ON UNIT 55 AT TIME STEP345, STRESS PERIOD    1

 HEAD WILL BE SAVED ON UNIT   51 AT END OF TIME STEP  345, STRESS PERIOD    1
 
 SOLVING FOR HEAD 
                                                   Max.-Head-Change                         Max.-Flux-Residual
  Residual-Control   Outer-Iter.   Inner-Iter.     Column Row Layer    Maximum-Head-Change  Column Row Layer    Maximum-Flux-Residual          L2-NORM 
          0                 1           1            32    8     1      -0.5820742672E-03       8   28    1        -0.4582341493E+00      0.4404573216E+01
          0                 2           1            23   49     2      -0.5723414128E-04      23   49    2        -0.9561735690E-02      0.1071049247E+00
          0                 3           1            31   22     1       0.2923300826E-04      36   52    2        -0.1959248504E-02      0.3639084291E-01
          0                 4           1            32   29     1       0.1894062435E-04      31   25    2         0.1087623878E-02      0.2048495349E-01
          0                 5           1            31   31     2       0.2320978097E-04      31   29    2         0.9786638822E-03      0.1432202641E-01
          0                 6           1            30   31     1       0.1342985019E-04      30   30    2         0.7505537051E-03      0.1104471042E-01
          0                 7           1            31   31     2       0.1541226591E-04      32   32    2         0.6237627194E-03      0.9131084029E-02
          0                 8           1            30   31     1       0.9409118902E-05      30   30    2         0.4767988714E-03      0.7979877528E-02

    ------------------------------------------------
       NWT REQUIRED            8 OUTER ITERATIONS 
       AND A TOTAL OF          8 INNER ITERATIONS.
    ------------------------------------------------

 OUTPUT CONTROL FOR STRESS PERIOD    1   TIME STEP  346
    SAVE HEAD FOR ALL LAYERS
 SOLVING FOR ZETA FOR LAYER     1 ZONE     2

     623 UPPER PART EQS.       639 LOWER PART EQS.    BAND WIDTH + 1 =   33
 STRESS PERIOD=  1 TIMESTEP=346 LAYER=  1 ZONE=  2 ACTIVE CELLS= 1262 NUMBER OF EQUATIONS=    1262
 SOLVING FOR ZETA FOR LAYER     2 ZONE     2

     533 UPPER PART EQS.       537 LOWER PART EQS.    BAND WIDTH + 1 =   32
 STRESS PERIOD=  1 TIMESTEP=346 LAYER=  2 ZONE=  2 ACTIVE CELLS= 1070 NUMBER OF EQUATIONS=    1070
 UBUDSV SAVING "      ZETASRF  1" ON UNIT 55 AT TIME STEP346, STRESS PERIOD    1

 HEAD WILL BE SAVED ON UNIT   51 AT END OF TIME STEP  346, STRESS PERIOD    1
 
 SOLVING FOR HEAD 
                                                   Max.-Head-Change                         Max.-Flux-Residual
  Residual-Control   Outer-Iter.   Inner-Iter.     Column Row Layer    Maximum-Head-Change  Column Row Layer    Maximum-Flux-Residual          L2-NORM 
          0                 1           1             8   26     1      -0.5501040539E-03      54   27    1        -0.4572411367E+00      0.4248719159E+01
          0                 2           1            31   49     2      -0.4375234456E-04      28   53    1        -0.8044900401E-02      0.1005201307E+00
          0                 3           1            38   23     1       0.3263080918E-04      39   41    2         0.1659613881E-02      0.3368322485E-01
          0                 4           1            33   28     1       0.2066332734E-04      42   26    2         0.1151972512E-02      0.2204644892E-01
          0                 5           1            32   32     2       0.2852586727E-04      31   29    2         0.1052726032E-02      0.1849411025E-01
          0                 6           1            31   31     2       0.1778220000E-04      33   31    2         0.8883431667E-03      0.1641383822E-01
          0                 7           1            31   31     2       0.2070347092E-04      32   32    2         0.7912585626E-03      0.1464427270E-01
          0                 8           1            30   31     1       0.1392101496E-04      42   26    2         0.6706805622E-03      0.1326820915E-01
          0                 9           1            32   31     1       0.1484661591E-04      32   32    2         0.5983561977E-03      0.1189497373E-01
          0                10           1            29   32     1       0.1128070900E-04      42   26    2         0.5570787552E-03      0.1079554265E-01
                                                   Max.-Head-Change                         Max.-Flux-Residual
  Residual-Control   Outer-Iter.   Inner-Iter.     Column Row Layer    Maximum-Head-Change  Column Row Layer    Maximum-Flux-Residual          L2-NORM 
          0                11           1            32   31     1       0.1137483502E-04      38   26    2         0.4909433911E-03      0.9713554362E-02
          0                12           1            29   32     1       0.9196136301E-05      41   23    2         0.4738343280E-03      0.8808049074E-02

    ------------------------------------------------
       NWT REQUIRED           12 OUTER ITERATIONS 
       AND A TOTAL OF         12 INNER ITERATIONS.
    ------------------------------------------------

 OUTPUT CONTROL FOR STRESS PERIOD    1   TIME STEP  347
    SAVE HEAD FOR ALL LAYERS
 SOLVING FOR ZETA FOR LAYER     1 ZONE     2

     628 UPPER PART EQS.       612 LOWER PART EQS.    BAND WIDTH + 1 =   31
 STRESS PERIOD=  1 TIMESTEP=347 LAYER=  1 ZONE=  2 ACTIVE CELLS= 1240 NUMBER OF EQUATIONS=    1240
 SOLVING FOR ZETA FOR LAYER     2 ZONE     2

     533 UPPER PART EQS.       538 LOWER PART EQS.    BAND WIDTH + 1 =   32
 STRESS PERIOD=  1 TIMESTEP=347 LAYER=  2 ZONE=  2 ACTIVE CELLS= 1071 NUMBER OF EQUATIONS=    1071
 UBUDSV SAVING "      ZETASRF  1" ON UNIT 55 AT TIME STEP347, STRESS PERIOD    1

 HEAD WILL BE SAVED ON UNIT   51 AT END OF TIME STEP  347, STRESS PERIOD    1
 
 SOLVING FOR HEAD 
                                                   Max.-Head-Change                         Max.-Flux-Residual
  Residual-Control   Outer-Iter.   Inner-Iter.     Column Row Layer    Maximum-Head-Change  Column Row Layer    Maximum-Flux-Residual          L2-NORM 
          0                 1           1             8   32     1      -0.5885101881E-03       8   28    1        -0.4616929229E+00      0.3971060084E+01
          0                 2           1            23   49     2      -0.5350905721E-04      36   53    1        -0.8732778122E-02      0.1061571768E+00
          0                 3           1            26   23     1       0.2993103757E-04      36   52    2        -0.2027139096E-02      0.3774432384E-01
          0                 4           1            32   29     1       0.2008431517E-04      31   25    2         0.1133419458E-02      0.2160806125E-01
          0                 5           1            31   31     2       0.2431071931E-04      31   29    2         0.1038042167E-02      0.1549867235E-01
          0                 6           1            30   31     1       0.1513483531E-04      30   30    2         0.8128581059E-03      0.1223045938E-01
          0                 7           1            31   31     2       0.1647285593E-04      32   32    2         0.6816808617E-03      0.1030306037E-01
          0                 8           1            30   31     1       0.1113021500E-04      30   30    2         0.5320924746E-03      0.9076670228E-02
          0                 9           1            31   31     2       0.1046207256E-04      32   32    2         0.4543630577E-03      0.8083962896E-02
          0                10           1            30   31     1       0.8937652019E-05      30   30    2         0.3796303930E-03      0.7334240735E-02

    ------------------------------------------------
       NWT REQUIRED           10 OUTER ITERATIONS 
       AND A TOTAL OF         10 INNER ITERATIONS.
    ------------------------------------------------

 OUTPUT CONTROL FOR STRESS PERIOD    1   TIME STEP  348
    SAVE HEAD FOR ALL LAYERS
 SOLVING FOR ZETA FOR LAYER     1 ZONE     2

     623 UPPER PART EQS.       632 LOWER PART EQS.    BAND WIDTH + 1 =   30
 STRESS PERIOD=  1 TIMESTEP=348 LAYER=  1 ZONE=  2 ACTIVE CELLS= 1255 NUMBER OF EQUATIONS=    1255
 SOLVING FOR ZETA FOR LAYER     2 ZONE     2

     533 UPPER PART EQS.       538 LOWER PART EQS.    BAND WIDTH + 1 =   32
 STRESS PERIOD=  1 TIMESTEP=348 LAYER=  2 ZONE=  2 ACTIVE CELLS= 1071 NUMBER OF EQUATIONS=    1071
 UBUDSV SAVING "      ZETASRF  1" ON UNIT 55 AT TIME STEP348, STRESS PERIOD    1

 HEAD WILL BE SAVED ON UNIT   51 AT END OF TIME STEP  348, STRESS PERIOD    1
 
 SOLVING FOR HEAD 
                                                   Max.-Head-Change                         Max.-Flux-Residual
  Residual-Control   Outer-Iter.   Inner-Iter.     Column Row Layer    Maximum-Head-Change  Column Row Layer    Maximum-Flux-Residual          L2-NORM 
          0                 1           1             8   26     1      -0.5550939330E-03      54   27    1        -0.4606086895E+00      0.4213798093E+01
          0                 2           1            31   49     2      -0.4366199294E-04      28   53    1        -0.8219308328E-02      0.9918754441E-01
          0                 3           1            24   23     1       0.2950017454E-04      29   51    2        -0.1703277442E-02      0.3149451517E-01
          0                 4           1            30   27     1       0.1888664075E-04      28   25    1         0.1059325826E-02      0.2026566554E-01
          0                 5           1            31   31     2       0.2568844706E-04      31   29    2         0.9607124314E-03      0.1681761663E-01
          0                 6           1            30   31     1       0.1624986842E-04      30   30    2         0.8180698829E-03      0.1491676742E-01
          0                 7           1            31   31     2       0.1924391131E-04      32   32    2         0.7222452177E-03      0.1328361417E-01
          0                 8           1            29   32     1       0.1239710987E-04      29   31    2         0.6041854805E-03      0.1206374541E-01
          0                 9           1            31   31     2       0.1398224271E-04      32   32    2         0.5433881880E-03      0.1077270920E-01
          0                10           1            29   32     1       0.9878291117E-05      41   23    2         0.4983452552E-03      0.9814525323E-02

    ------------------------------------------------
       NWT REQUIRED           10 OUTER ITERATIONS 
       AND A TOTAL OF         10 INNER ITERATIONS.
    ------------------------------------------------

 OUTPUT CONTROL FOR STRESS PERIOD    1   TIME STEP  349
    SAVE HEAD FOR ALL LAYERS
 SOLVING FOR ZETA FOR LAYER     1 ZONE     2

     627 UPPER PART EQS.       622 LOWER PART EQS.    BAND WIDTH + 1 =   24
 STRESS PERIOD=  1 TIMESTEP=349 LAYER=  1 ZONE=  2 ACTIVE CELLS= 1249 NUMBER OF EQUATIONS=    1249
 SOLVING FOR ZETA FOR LAYER     2 ZONE     2

     533 UPPER PART EQS.       540 LOWER PART EQS.    BAND WIDTH + 1 =   32
 STRESS PERIOD=  1 TIMESTEP=349 LAYER=  2 ZONE=  2 ACTIVE CELLS= 1073 NUMBER OF EQUATIONS=    1073
 UBUDSV SAVING "      ZETASRF  1" ON UNIT 55 AT TIME STEP349, STRESS PERIOD    1

 HEAD WILL BE SAVED ON UNIT   51 AT END OF TIME STEP  349, STRESS PERIOD    1
 
 SOLVING FOR HEAD 
                                                   Max.-Head-Change                         Max.-Flux-Residual
  Residual-Control   Outer-Iter.   Inner-Iter.     Column Row Layer    Maximum-Head-Change  Column Row Layer    Maximum-Flux-Residual          L2-NORM 
          0                 1           1             8   32     1      -0.5945090139E-03      54   28    1        -0.4651837776E+00      0.4041850179E+01
          0                 2           1            39   49     2      -0.5258846425E-04      36   53    1        -0.8985483461E-02      0.1062211217E+00
          0                 3           1            37   24     1       0.3086259631E-04      36   52    2        -0.2075865623E-02      0.3675293551E-01
          0                 4           1            33   28     1       0.2040745994E-04      34   26    2         0.1144151131E-02      0.2120937508E-01
          0                 5           1            32   32     2       0.2427636567E-04      31   29    2         0.1032681385E-02      0.1542669628E-01
          0                 6           1            31   31     2       0.1536762044E-04      33   31    2         0.8114652403E-03      0.1233415269E-01
          0                 7           1            31   31     2       0.1640669378E-04      32   32    2         0.6836398526E-03      0.1046949226E-01
          0                 8           1            31   31     2       0.1148498836E-04      30   30    2         0.5356417863E-03      0.9263118480E-02
          0                 9           1            32   31     1       0.1037534836E-04      32   32    2         0.4590320167E-03      0.8256997920E-02
          0                10           1            30   31     1       0.9359561801E-05      30   30    2         0.3860477387E-03      0.7484907156E-02

    ------------------------------------------------
       NWT REQUIRED           10 OUTER ITERATIONS 
       AND A TOTAL OF         10 INNER ITERATIONS.
    ------------------------------------------------

 OUTPUT CONTROL FOR STRESS PERIOD    1   TIME STEP  350
    SAVE HEAD FOR ALL LAYERS
 SOLVING FOR ZETA FOR LAYER     1 ZONE     2

     618 UPPER PART EQS.       624 LOWER PART EQS.    BAND WIDTH + 1 =   27
 STRESS PERIOD=  1 TIMESTEP=350 LAYER=  1 ZONE=  2 ACTIVE CELLS= 1242 NUMBER OF EQUATIONS=    1242
 SOLVING FOR ZETA FOR LAYER     2 ZONE     2

     533 UPPER PART EQS.       540 LOWER PART EQS.    BAND WIDTH + 1 =   32
 STRESS PERIOD=  1 TIMESTEP=350 LAYER=  2 ZONE=  2 ACTIVE CELLS= 1073 NUMBER OF EQUATIONS=    1073
 UBUDSV SAVING "      ZETASRF  1" ON UNIT 55 AT TIME STEP350, STRESS PERIOD    1

 HEAD WILL BE SAVED ON UNIT   51 AT END OF TIME STEP  350, STRESS PERIOD    1
 
 SOLVING FOR HEAD 
                                                   Max.-Head-Change                         Max.-Flux-Residual
  Residual-Control   Outer-Iter.   Inner-Iter.     Column Row Layer    Maximum-Head-Change  Column Row Layer    Maximum-Flux-Residual          L2-NORM 
          0                 1           1             8   26     1      -0.5604728485E-03      54   27    1        -0.4639479310E+00      0.4179198533E+01
          0                 2           1            31   49     2      -0.4430269470E-04      28   53    1        -0.8368457973E-02      0.1009797795E+00
          0                 3           1            23   22     1       0.3265486699E-04      24   21    1         0.1772753128E-02      0.3415403891E-01
          0                 4           1            32   27     1       0.2022115557E-04      42   26    2         0.1146693699E-02      0.2228276506E-01
          0                 5           1            31   31     2       0.2870083739E-04      31   29    2         0.1046242998E-02      0.1869836788E-01
          0                 6           1            30   31     1       0.1770812242E-04      30   30    2         0.8915052343E-03      0.1661917433E-01
          0                 7           1            31   31     2       0.2134903044E-04      32   32    2         0.7968471829E-03      0.1481656211E-01
          0                 8           1            30   31     1       0.1372956069E-04      17   35    2         0.6750721118E-03      0.1343631890E-01
          0                 9           1            32   31     1       0.1542679106E-04      17   35    2         0.6326443163E-03      0.1201834764E-01
          0                10           1            29   32     1       0.1107594782E-04      17   35    2         0.5638107784E-03      0.1092322700E-01
                                                   Max.-Head-Change                         Max.-Flux-Residual
  Residual-Control   Outer-Iter.   Inner-Iter.     Column Row Layer    Maximum-Head-Change  Column Row Layer    Maximum-Flux-Residual          L2-NORM 
          0                11           1            32   31     1       0.1184798274E-04      17   35    2         0.5172547573E-03      0.9800934293E-02
          0                12           1            29   32     1       0.9011282524E-05      41   23    2         0.4791394604E-03      0.8905198235E-02

    ------------------------------------------------
       NWT REQUIRED           12 OUTER ITERATIONS 
       AND A TOTAL OF         12 INNER ITERATIONS.
    ------------------------------------------------

 OUTPUT CONTROL FOR STRESS PERIOD    1   TIME STEP  351
    SAVE HEAD FOR ALL LAYERS
 SOLVING FOR ZETA FOR LAYER     1 ZONE     2

     631 UPPER PART EQS.       628 LOWER PART EQS.    BAND WIDTH + 1 =   26
 STRESS PERIOD=  1 TIMESTEP=351 LAYER=  1 ZONE=  2 ACTIVE CELLS= 1259 NUMBER OF EQUATIONS=    1259
 SOLVING FOR ZETA FOR LAYER     2 ZONE     2

     533 UPPER PART EQS.       540 LOWER PART EQS.    BAND WIDTH + 1 =   32
 STRESS PERIOD=  1 TIMESTEP=351 LAYER=  2 ZONE=  2 ACTIVE CELLS= 1073 NUMBER OF EQUATIONS=    1073
 UBUDSV SAVING "      ZETASRF  1" ON UNIT 55 AT TIME STEP351, STRESS PERIOD    1

 HEAD WILL BE SAVED ON UNIT   51 AT END OF TIME STEP  351, STRESS PERIOD    1
 
 SOLVING FOR HEAD 
                                                   Max.-Head-Change                         Max.-Flux-Residual
  Residual-Control   Outer-Iter.   Inner-Iter.     Column Row Layer    Maximum-Head-Change  Column Row Layer    Maximum-Flux-Residual          L2-NORM 
          0                 1           1             8   32     1      -0.6004543210E-03       8   28    1        -0.4686060247E+00      0.4105355984E+01
          0                 2           1            23   49     2      -0.4793708834E-04      36   53    1        -0.8927340260E-02      0.1014360366E+00
          0                 3           1            31   22     1       0.2653221316E-04      36   52    2        -0.1887692631E-02      0.3330062320E-01
          0                 4           1            32   29     1       0.1709218110E-04      30   26    2         0.9741373917E-03      0.1845955913E-01
          0                 5           1            31   31     2       0.2081620523E-04      31   29    2         0.8778660793E-03      0.1275379752E-01
          0                 6           1            30   31     1       0.1168660330E-04      30   30    2         0.6653439835E-03      0.9692342858E-02
          0                 7           1            31   31     2       0.1370143491E-04      32   32    2         0.5488473488E-03      0.7922889415E-02
          0                 8           1            30   31     1       0.8062097665E-05      30   30    2         0.4161385785E-03      0.6859624802E-02

    ------------------------------------------------
       NWT REQUIRED            8 OUTER ITERATIONS 
       AND A TOTAL OF          8 INNER ITERATIONS.
    ------------------------------------------------

 OUTPUT CONTROL FOR STRESS PERIOD    1   TIME STEP  352
    SAVE HEAD FOR ALL LAYERS
 SOLVING FOR ZETA FOR LAYER     1 ZONE     2

     619 UPPER PART EQS.       620 LOWER PART EQS.    BAND WIDTH + 1 =   22
 STRESS PERIOD=  1 TIMESTEP=352 LAYER=  1 ZONE=  2 ACTIVE CELLS= 1239 NUMBER OF EQUATIONS=    1239
 SOLVING FOR ZETA FOR LAYER     2 ZONE     2

     533 UPPER PART EQS.       540 LOWER PART EQS.    BAND WIDTH + 1 =   32
 STRESS PERIOD=  1 TIMESTEP=352 LAYER=  2 ZONE=  2 ACTIVE CELLS= 1073 NUMBER OF EQUATIONS=    1073
 UBUDSV SAVING "      ZETASRF  1" ON UNIT 55 AT TIME STEP352, STRESS PERIOD    1

 HEAD WILL BE SAVED ON UNIT   51 AT END OF TIME STEP  352, STRESS PERIOD    1
 
 SOLVING FOR HEAD 
                                                   Max.-Head-Change                         Max.-Flux-Residual
  Residual-Control   Outer-Iter.   Inner-Iter.     Column Row Layer    Maximum-Head-Change  Column Row Layer    Maximum-Flux-Residual          L2-NORM 
          0                 1           1             8   26     1      -0.5655762991E-03      54   27    1        -0.4672441450E+00      0.4234250558E+01
          0                 2           1            31   49     2      -0.4394150840E-04      28   53    1        -0.8448346830E-02      0.1022435463E+00
          0                 3           1            38   23     1       0.3359504739E-04      39   41    2         0.1781607252E-02      0.3488403833E-01
          0                 4           1            34   27     1       0.2018869333E-04      42   26    2         0.1187156132E-02      0.2249675578E-01
          0                 5           1            32   32     2       0.2936489588E-04      31   29    2         0.1047574460E-02      0.1885891616E-01
          0                 6           1            30   31     1       0.1752869518E-04      33   31    2         0.8949754166E-03      0.1673637626E-01
          0                 7           1            31   31     2       0.2177434675E-04      32   32    2         0.8028103775E-03      0.1491954455E-01
          0                 8           1            30   31     1       0.1368572546E-04      42   26    2         0.6897469676E-03      0.1351867688E-01
          0                 9           1            32   31     1       0.1559996799E-04      17   35    2         0.6219462742E-03      0.1209130956E-01
          0                10           1            29   32     1       0.1111624886E-04      42   26    2         0.5720531665E-03      0.1098074500E-01
                                                   Max.-Head-Change                         Max.-Flux-Residual
  Residual-Control   Outer-Iter.   Inner-Iter.     Column Row Layer    Maximum-Head-Change  Column Row Layer    Maximum-Flux-Residual          L2-NORM 
          0                11           1            32   31     1       0.1189504423E-04      17   35    2         0.5113446067E-03      0.9858295917E-02
          0                12           1            29   32     1       0.9101036203E-05      42   26    2         0.4765807637E-03      0.8948499546E-02

    ------------------------------------------------
       NWT REQUIRED           12 OUTER ITERATIONS 
       AND A TOTAL OF         12 INNER ITERATIONS.
    ------------------------------------------------

 OUTPUT CONTROL FOR STRESS PERIOD    1   TIME STEP  353
    SAVE HEAD FOR ALL LAYERS
 SOLVING FOR ZETA FOR LAYER     1 ZONE     2

     626 UPPER PART EQS.       616 LOWER PART EQS.    BAND WIDTH + 1 =   29
 STRESS PERIOD=  1 TIMESTEP=353 LAYER=  1 ZONE=  2 ACTIVE CELLS= 1242 NUMBER OF EQUATIONS=    1242
 SOLVING FOR ZETA FOR LAYER     2 ZONE     2

     533 UPPER PART EQS.       540 LOWER PART EQS.    BAND WIDTH + 1 =   32
 STRESS PERIOD=  1 TIMESTEP=353 LAYER=  2 ZONE=  2 ACTIVE CELLS= 1073 NUMBER OF EQUATIONS=    1073
 UBUDSV SAVING "      ZETASRF  1" ON UNIT 55 AT TIME STEP353, STRESS PERIOD    1

 HEAD WILL BE SAVED ON UNIT   51 AT END OF TIME STEP  353, STRESS PERIOD    1
 
 SOLVING FOR HEAD 
                                                   Max.-Head-Change                         Max.-Flux-Residual
  Residual-Control   Outer-Iter.   Inner-Iter.     Column Row Layer    Maximum-Head-Change  Column Row Layer    Maximum-Flux-Residual          L2-NORM 
          0                 1           1             8   32     1      -0.6069403776E-03       8   28    1        -0.4720132257E+00      0.4114475049E+01
          0                 2           1            23   49     2      -0.5177409615E-04      36   53    1        -0.9054806993E-02      0.1056141292E+00
          0                 3           1            26   23     1       0.2846059285E-04      36   52    2        -0.1997941490E-02      0.3613459683E-01
          0                 4           1            32   29     1       0.1936317951E-04      31   25    2         0.1085512663E-02      0.2064436923E-01
          0                 5           1            31   31     2       0.2337987985E-04      31   29    2         0.9964495108E-03      0.1488852866E-01
          0                 6           1            30   31     1       0.1460499984E-04      30   30    2         0.7828891231E-03      0.1179041881E-01
          0                 7           1            31   31     2       0.1602715302E-04      32   32    2         0.6563745600E-03      0.9949476591E-02
          0                 8           1            30   31     1       0.1067666718E-04      30   30    2         0.5134184571E-03      0.8751211065E-02
          0                 9           1            31   31     2       0.1024906890E-04      32   32    2         0.4385772277E-03      0.7783165787E-02
          0                10           1            30   31     1       0.8556326746E-05      30   30    2         0.3673947991E-03      0.7053524118E-02

    ------------------------------------------------
       NWT REQUIRED           10 OUTER ITERATIONS 
       AND A TOTAL OF         10 INNER ITERATIONS.
    ------------------------------------------------

 OUTPUT CONTROL FOR STRESS PERIOD    1   TIME STEP  354
    SAVE HEAD FOR ALL LAYERS
 SOLVING FOR ZETA FOR LAYER     1 ZONE     2

     623 UPPER PART EQS.       626 LOWER PART EQS.    BAND WIDTH + 1 =   24
 STRESS PERIOD=  1 TIMESTEP=354 LAYER=  1 ZONE=  2 ACTIVE CELLS= 1249 NUMBER OF EQUATIONS=    1249
 SOLVING FOR ZETA FOR LAYER     2 ZONE     2

     533 UPPER PART EQS.       540 LOWER PART EQS.    BAND WIDTH + 1 =   32
 STRESS PERIOD=  1 TIMESTEP=354 LAYER=  2 ZONE=  2 ACTIVE CELLS= 1073 NUMBER OF EQUATIONS=    1073
 UBUDSV SAVING "      ZETASRF  1" ON UNIT 55 AT TIME STEP354, STRESS PERIOD    1

 HEAD WILL BE SAVED ON UNIT   51 AT END OF TIME STEP  354, STRESS PERIOD    1
 
 SOLVING FOR HEAD 
                                                   Max.-Head-Change                         Max.-Flux-Residual
  Residual-Control   Outer-Iter.   Inner-Iter.     Column Row Layer    Maximum-Head-Change  Column Row Layer    Maximum-Flux-Residual          L2-NORM 
          0                 1           1             8   26     1      -0.5703160109E-03      54   27    1        -0.4705817553E+00      0.4276398720E+01
          0                 2           1            31   49     2      -0.4246506187E-04      28   53    1        -0.8532260252E-02      0.9830454167E-01
          0                 3           1            24   23     1       0.2563037971E-04      29   51    2        -0.1652218029E-02      0.2945124489E-01
          0                 4           1            30   27     1       0.1780648292E-04      41   23    2         0.1000199882E-02      0.1896182049E-01
          0                 5           1            31   31     2       0.2306668206E-04      31   29    2         0.8865041839E-03      0.1571096145E-01
          0                 6           1            30   31     1       0.1546396899E-04      30   30    2         0.7601964959E-03      0.1395580531E-01
          0                 7           1            31   31     2       0.1752988534E-04      32   32    2         0.6728692827E-03      0.1244634616E-01
          0                 8           1            30   31     1       0.1176193838E-04      34   30    2         0.5649505612E-03      0.1130237243E-01
          0                 9           1            32   31     1       0.1296795166E-04      32   32    2         0.5086865077E-03      0.1010889522E-01
          0                10           1            29   32     1       0.9287314135E-05      42   26    2         0.4565319892E-03      0.9204532775E-02

    ------------------------------------------------
       NWT REQUIRED           10 OUTER ITERATIONS 
       AND A TOTAL OF         10 INNER ITERATIONS.
    ------------------------------------------------

 OUTPUT CONTROL FOR STRESS PERIOD    1   TIME STEP  355
    SAVE HEAD FOR ALL LAYERS
 SOLVING FOR ZETA FOR LAYER     1 ZONE     2

     627 UPPER PART EQS.       612 LOWER PART EQS.    BAND WIDTH + 1 =   34
 STRESS PERIOD=  1 TIMESTEP=355 LAYER=  1 ZONE=  2 ACTIVE CELLS= 1239 NUMBER OF EQUATIONS=    1239
 SOLVING FOR ZETA FOR LAYER     2 ZONE     2

     533 UPPER PART EQS.       540 LOWER PART EQS.    BAND WIDTH + 1 =   32
 STRESS PERIOD=  1 TIMESTEP=355 LAYER=  2 ZONE=  2 ACTIVE CELLS= 1073 NUMBER OF EQUATIONS=    1073
 UBUDSV SAVING "      ZETASRF  1" ON UNIT 55 AT TIME STEP355, STRESS PERIOD    1

 HEAD WILL BE SAVED ON UNIT   51 AT END OF TIME STEP  355, STRESS PERIOD    1
 
 SOLVING FOR HEAD 
                                                   Max.-Head-Change                         Max.-Flux-Residual
  Residual-Control   Outer-Iter.   Inner-Iter.     Column Row Layer    Maximum-Head-Change  Column Row Layer    Maximum-Flux-Residual          L2-NORM 
          0                 1           1             8   32     1      -0.6130362044E-03      54   34    1        -0.4754410101E+00      0.4171382999E+01
          0                 2           1            39   49     2      -0.5208470719E-04      36   53    1        -0.9268041007E-02      0.1075367478E+00
          0                 3           1            38   25     1       0.2982880509E-04      36   52    2        -0.2083089953E-02      0.3688734064E-01
          0                 4           1            33   28     1       0.2007870370E-04      34   26    2         0.1120732455E-02      0.2121632107E-01
          0                 5           1            31   31     2       0.2378578920E-04      31   29    2         0.1019704146E-02      0.1544672879E-01
          0                 6           1            31   31     2       0.1547484406E-04      30   30    2         0.8090320797E-03      0.1237523039E-01
          0                 7           1            31   31     2       0.1637743668E-04      32   32    2         0.6832024648E-03      0.1051595705E-01
          0                 8           1            30   31     1       0.1156855309E-04      30   30    2         0.5390697737E-03      0.9294605839E-02
          0                 9           1            31   31     2       0.1047500299E-04      32   32    2         0.4609766094E-03      0.8282810066E-02
          0                10           1            30   31     1       0.9343188477E-05      30   30    2         0.3894854236E-03      0.7504248104E-02

    ------------------------------------------------
       NWT REQUIRED           10 OUTER ITERATIONS 
       AND A TOTAL OF         10 INNER ITERATIONS.
    ------------------------------------------------

 OUTPUT CONTROL FOR STRESS PERIOD    1   TIME STEP  356
    SAVE HEAD FOR ALL LAYERS
 SOLVING FOR ZETA FOR LAYER     1 ZONE     2

     618 UPPER PART EQS.       618 LOWER PART EQS.    BAND WIDTH + 1 =   23
 STRESS PERIOD=  1 TIMESTEP=356 LAYER=  1 ZONE=  2 ACTIVE CELLS= 1236 NUMBER OF EQUATIONS=    1236
 SOLVING FOR ZETA FOR LAYER     2 ZONE     2

     533 UPPER PART EQS.       540 LOWER PART EQS.    BAND WIDTH + 1 =   32
 STRESS PERIOD=  1 TIMESTEP=356 LAYER=  2 ZONE=  2 ACTIVE CELLS= 1073 NUMBER OF EQUATIONS=    1073
 UBUDSV SAVING "      ZETASRF  1" ON UNIT 55 AT TIME STEP356, STRESS PERIOD    1

 HEAD WILL BE SAVED ON UNIT   51 AT END OF TIME STEP  356, STRESS PERIOD    1
 
 SOLVING FOR HEAD 
                                                   Max.-Head-Change                         Max.-Flux-Residual
  Residual-Control   Outer-Iter.   Inner-Iter.     Column Row Layer    Maximum-Head-Change  Column Row Layer    Maximum-Flux-Residual          L2-NORM 
          0                 1           1             8   26     1      -0.5756668251E-03      54   27    1        -0.4738745627E+00      0.4289984973E+01
          0                 2           1            31   49     2      -0.4279714598E-04      28   53    1        -0.8706380173E-02      0.1005069868E+00
          0                 3           1            23   22     1       0.3151883381E-04      24   21    1         0.1708509771E-02      0.3304914868E-01
          0                 4           1            32   27     1       0.1949704207E-04      42   26    2         0.1114755053E-02      0.2166760161E-01
          0                 5           1            31   31     2       0.2774662312E-04      31   29    2         0.1003793535E-02      0.1824841618E-01
          0                 6           1            30   31     1       0.1710205280E-04      30   30    2         0.8616872642E-03      0.1627187660E-01
          0                 7           1            31   31     2       0.2092102910E-04      32   32    2         0.7717012527E-03      0.1450535197E-01
          0                 8           1            30   31     1       0.1321323646E-04      17   35    2         0.6723512969E-03      0.1316873650E-01
          0                 9           1            32   31     1       0.1530534467E-04      17   35    2         0.6136350783E-03      0.1175919525E-01
          0                10           1            29   32     1       0.1059114913E-04      17   35    2         0.5596354118E-03      0.1069851051E-01
                                                   Max.-Head-Change                         Max.-Flux-Residual
  Residual-Control   Outer-Iter.   Inner-Iter.     Column Row Layer    Maximum-Head-Change  Column Row Layer    Maximum-Flux-Residual          L2-NORM 
          0                11           1            32   31     1       0.1185324957E-04      17   35    2         0.5003187149E-03      0.9577780525E-02
          0                12           1            29   32     1       0.8570043173E-05      41   23    2         0.4785740401E-03      0.8714432904E-02

    ------------------------------------------------
       NWT REQUIRED           12 OUTER ITERATIONS 
       AND A TOTAL OF         12 INNER ITERATIONS.
    ------------------------------------------------

 OUTPUT CONTROL FOR STRESS PERIOD    1   TIME STEP  357
    SAVE HEAD FOR ALL LAYERS
 SOLVING FOR ZETA FOR LAYER     1 ZONE     2

     631 UPPER PART EQS.       622 LOWER PART EQS.    BAND WIDTH + 1 =   30
 STRESS PERIOD=  1 TIMESTEP=357 LAYER=  1 ZONE=  2 ACTIVE CELLS= 1253 NUMBER OF EQUATIONS=    1253
 SOLVING FOR ZETA FOR LAYER     2 ZONE     2

     533 UPPER PART EQS.       540 LOWER PART EQS.    BAND WIDTH + 1 =   32
 STRESS PERIOD=  1 TIMESTEP=357 LAYER=  2 ZONE=  2 ACTIVE CELLS= 1073 NUMBER OF EQUATIONS=    1073
 UBUDSV SAVING "      ZETASRF  1" ON UNIT 55 AT TIME STEP357, STRESS PERIOD    1

 HEAD WILL BE SAVED ON UNIT   51 AT END OF TIME STEP  357, STRESS PERIOD    1
 
 SOLVING FOR HEAD 
                                                   Max.-Head-Change                         Max.-Flux-Residual
  Residual-Control   Outer-Iter.   Inner-Iter.     Column Row Layer    Maximum-Head-Change  Column Row Layer    Maximum-Flux-Residual          L2-NORM 
          0                 1           1             8   32     1      -0.6188258100E-03      54   34    1        -0.4787819797E+00      0.4216664451E+01
          0                 2           1            23   49     2      -0.4740896383E-04      36   53    1        -0.9245812248E-02      0.1017586533E+00
          0                 3           1            31   22     1       0.2536836539E-04      36   52    2        -0.1900378301E-02      0.3281106131E-01
          0                 4           1            32   29     1       0.1675118332E-04      36   53    1        -0.9505995099E-03      0.1818716747E-01
          0                 5           1            31   31     2       0.2011784375E-04      31   29    2         0.8582234831E-03      0.1257973911E-01
          0                 6           1            31   31     2       0.1165741312E-04      30   30    2         0.6555616651E-03      0.9568966914E-02
          0                 7           1            31   31     2       0.1334567326E-04      32   32    2         0.5407216307E-03      0.7819350608E-02
          0                 8           1            30   31     1       0.8062483898E-05      30   30    2         0.4119793700E-03      0.6777179681E-02

    ------------------------------------------------
       NWT REQUIRED            8 OUTER ITERATIONS 
       AND A TOTAL OF          8 INNER ITERATIONS.
    ------------------------------------------------

 OUTPUT CONTROL FOR STRESS PERIOD    1   TIME STEP  358
    SAVE HEAD FOR ALL LAYERS
 SOLVING FOR ZETA FOR LAYER     1 ZONE     2

     619 UPPER PART EQS.       616 LOWER PART EQS.    BAND WIDTH + 1 =   26
 STRESS PERIOD=  1 TIMESTEP=358 LAYER=  1 ZONE=  2 ACTIVE CELLS= 1235 NUMBER OF EQUATIONS=    1235
 SOLVING FOR ZETA FOR LAYER     2 ZONE     2

     533 UPPER PART EQS.       540 LOWER PART EQS.    BAND WIDTH + 1 =   32
 STRESS PERIOD=  1 TIMESTEP=358 LAYER=  2 ZONE=  2 ACTIVE CELLS= 1073 NUMBER OF EQUATIONS=    1073
 UBUDSV SAVING "      ZETASRF  1" ON UNIT 55 AT TIME STEP358, STRESS PERIOD    1

 HEAD WILL BE SAVED ON UNIT   51 AT END OF TIME STEP  358, STRESS PERIOD    1
 
 SOLVING FOR HEAD 
                                                   Max.-Head-Change                         Max.-Flux-Residual
  Residual-Control   Outer-Iter.   Inner-Iter.     Column Row Layer    Maximum-Head-Change  Column Row Layer    Maximum-Flux-Residual          L2-NORM 
          0                 1           1             8   26     1      -0.5807429121E-03      54   27    1        -0.4771178180E+00      0.4339260052E+01
          0                 2           1            32   50     2      -0.4298439473E-04      28   53    1        -0.8793590173E-02      0.1015041025E+00
          0                 3           1            38   23     1       0.3190432171E-04      39   41    2         0.1687707526E-02      0.3361644919E-01
          0                 4           1            34   27     1       0.1937804360E-04      42   26    2         0.1146297606E-02      0.2175677975E-01
          0                 5           1            32   32     2       0.2815493611E-04      31   29    2         0.1001078298E-02      0.1828392126E-01
          0                 6           1            30   31     1       0.1689860268E-04      30   30    2         0.8603386094E-03      0.1627244782E-01
          0                 7           1            31   31     2       0.2106971268E-04      32   32    2         0.7735407581E-03      0.1450714582E-01
          0                 8           1            30   31     1       0.1321166262E-04      42   26    2         0.6709279522E-03      0.1315281135E-01
          0                 9           1            32   31     1       0.1514828221E-04      17   35    2         0.6034578455E-03      0.1175708080E-01
          0                10           1            29   32     1       0.1075577344E-04      42   26    2         0.5569471150E-03      0.1067840379E-01
                                                   Max.-Head-Change                         Max.-Flux-Residual
  Residual-Control   Outer-Iter.   Inner-Iter.     Column Row Layer    Maximum-Head-Change  Column Row Layer    Maximum-Flux-Residual          L2-NORM 
          0                11           1            32   31     1       0.1153570963E-04      45   23    2         0.4986396746E-03      0.9584058911E-02
          0                12           1            29   32     1       0.8837002743E-05      41   23    2         0.4636941646E-03      0.8699261792E-02

    ------------------------------------------------
       NWT REQUIRED           12 OUTER ITERATIONS 
       AND A TOTAL OF         12 INNER ITERATIONS.
    ------------------------------------------------

 OUTPUT CONTROL FOR STRESS PERIOD    1   TIME STEP  359
    SAVE HEAD FOR ALL LAYERS
 SOLVING FOR ZETA FOR LAYER     1 ZONE     2

     626 UPPER PART EQS.       614 LOWER PART EQS.    BAND WIDTH + 1 =   31
 STRESS PERIOD=  1 TIMESTEP=359 LAYER=  1 ZONE=  2 ACTIVE CELLS= 1240 NUMBER OF EQUATIONS=    1240
 SOLVING FOR ZETA FOR LAYER     2 ZONE     2

     533 UPPER PART EQS.       540 LOWER PART EQS.    BAND WIDTH + 1 =   32
 STRESS PERIOD=  1 TIMESTEP=359 LAYER=  2 ZONE=  2 ACTIVE CELLS= 1073 NUMBER OF EQUATIONS=    1073
 UBUDSV SAVING "      ZETASRF  1" ON UNIT 55 AT TIME STEP359, STRESS PERIOD    1

 HEAD WILL BE SAVED ON UNIT   51 AT END OF TIME STEP  359, STRESS PERIOD    1
 
 SOLVING FOR HEAD 
                                                   Max.-Head-Change                         Max.-Flux-Residual
  Residual-Control   Outer-Iter.   Inner-Iter.     Column Row Layer    Maximum-Head-Change  Column Row Layer    Maximum-Flux-Residual          L2-NORM 
          0                 1           1             8   31     1      -0.6251637140E-03       8   28    1        -0.4821308254E+00      0.4239138821E+01
          0                 2           1            22   50     2      -0.5083634532E-04      36   53    1        -0.9374467666E-02      0.1051336224E+00
          0                 3           1            26   23     1       0.2687653102E-04      36   52    2        -0.1991668940E-02      0.3511295659E-01
          0                 4           1            31   28     1       0.1842439057E-04      36   53    1        -0.1045581534E-02      0.1981605093E-01
          0                 5           1            31   31     2       0.2207759614E-04      31   29    2         0.9461225088E-03      0.1417380921E-01
          0                 6           1            30   31     1       0.1382648015E-04      30   30    2         0.7430217297E-03      0.1113804707E-01
          0                 7           1            31   31     2       0.1507183718E-04      32   32    2         0.6207964811E-03      0.9352531044E-02
          0                 8           1            30   31     1       0.1011925621E-04      30   30    2         0.4851520158E-03      0.8199892301E-02
          0                 9           1            31   31     2       0.9557680607E-05      32   32    2         0.4119945237E-03      0.7290966183E-02

    ------------------------------------------------
       NWT REQUIRED            9 OUTER ITERATIONS 
       AND A TOTAL OF          9 INNER ITERATIONS.
    ------------------------------------------------

 OUTPUT CONTROL FOR STRESS PERIOD    1   TIME STEP  360
    SAVE HEAD FOR ALL LAYERS
 SOLVING FOR ZETA FOR LAYER     1 ZONE     2

     623 UPPER PART EQS.       626 LOWER PART EQS.    BAND WIDTH + 1 =   24
 STRESS PERIOD=  1 TIMESTEP=360 LAYER=  1 ZONE=  2 ACTIVE CELLS= 1249 NUMBER OF EQUATIONS=    1249
 SOLVING FOR ZETA FOR LAYER     2 ZONE     2

     533 UPPER PART EQS.       540 LOWER PART EQS.    BAND WIDTH + 1 =   32
 STRESS PERIOD=  1 TIMESTEP=360 LAYER=  2 ZONE=  2 ACTIVE CELLS= 1073 NUMBER OF EQUATIONS=    1073
 UBUDSV SAVING "      ZETASRF  1" ON UNIT 55 AT TIME STEP360, STRESS PERIOD    1

 HEAD WILL BE SAVED ON UNIT   51 AT END OF TIME STEP  360, STRESS PERIOD    1
 
 SOLVING FOR HEAD 
                                                   Max.-Head-Change                         Max.-Flux-Residual
  Residual-Control   Outer-Iter.   Inner-Iter.     Column Row Layer    Maximum-Head-Change  Column Row Layer    Maximum-Flux-Residual          L2-NORM 
          0                 1           1             8   26     1      -0.5850418481E-03      54   35    1        -0.4804010219E+00      0.4414931413E+01
          0                 2           1            31   49     2      -0.4103174546E-04      28   53    1        -0.8882586334E-02      0.9783910437E-01
          0                 3           1            25   22     1       0.2380505043E-04      29   51    2        -0.1634519585E-02      0.2745671751E-01
          0                 4           1            31   26     1       0.1676799894E-04      41   23    2         0.9095784927E-03      0.1760576666E-01
          0                 5           1            31   31     2       0.2086936601E-04      31   29    2         0.8134336944E-03      0.1459706978E-01
          0                 6           1            31   31     2       0.1466994987E-04      32   32    2         0.7029558077E-03      0.1299259632E-01
          0                 7           1            31   31     2       0.1559131347E-04      32   32    2         0.6185196074E-03      0.1160757973E-01
          0                 8           1            31   31     2       0.1144030158E-04      32   32    2         0.5263962515E-03      0.1054019539E-01
          0                 9           1            32   31     1       0.1142045897E-04      32   32    2         0.4689753091E-03      0.9452496647E-02
          0                10           1            29   32     1       0.9136808157E-05      42   30    2         0.4160624740E-03      0.8591690986E-02

    ------------------------------------------------
       NWT REQUIRED           10 OUTER ITERATIONS 
       AND A TOTAL OF         10 INNER ITERATIONS.
    ------------------------------------------------

 OUTPUT CONTROL FOR STRESS PERIOD    1   TIME STEP  361
    SAVE HEAD FOR ALL LAYERS
 SOLVING FOR ZETA FOR LAYER     1 ZONE     2

     625 UPPER PART EQS.       608 LOWER PART EQS.    BAND WIDTH + 1 =   36
 STRESS PERIOD=  1 TIMESTEP=361 LAYER=  1 ZONE=  2 ACTIVE CELLS= 1233 NUMBER OF EQUATIONS=    1233
 SOLVING FOR ZETA FOR LAYER     2 ZONE     2

     533 UPPER PART EQS.       540 LOWER PART EQS.    BAND WIDTH + 1 =   32
 STRESS PERIOD=  1 TIMESTEP=361 LAYER=  2 ZONE=  2 ACTIVE CELLS= 1073 NUMBER OF EQUATIONS=    1073
 UBUDSV SAVING "      ZETASRF  1" ON UNIT 55 AT TIME STEP361, STRESS PERIOD    1

 HEAD WILL BE SAVED ON UNIT   51 AT END OF TIME STEP  361, STRESS PERIOD    1
 
 SOLVING FOR HEAD 
                                                   Max.-Head-Change                         Max.-Flux-Residual
  Residual-Control   Outer-Iter.   Inner-Iter.     Column Row Layer    Maximum-Head-Change  Column Row Layer    Maximum-Flux-Residual          L2-NORM 
          0                 1           1             8   31     1      -0.6295236162E-03      54   34    1        -0.4854282171E+00      0.4404535735E+01
          0                 2           1            39   49     2      -0.5247564123E-04      36   53    1        -0.9516208694E-02      0.1071515784E+00
          0                 3           1            37   24     1       0.2605788267E-04      36   52    2        -0.1998359859E-02      0.3412075182E-01
          0                 4           1            33   28     1       0.1718341205E-04      51   30    1        -0.9774379029E-03      0.1886162039E-01
          0                 5           1            31   31     2       0.1997359718E-04      31   29    2         0.8703485931E-03      0.1309914025E-01
          0                 6           1            31   31     2       0.1256825604E-04      32   32    2         0.6807981043E-03      0.1005654978E-01
          0                 7           1            31   31     2       0.1331846630E-04      32   32    2         0.5642723195E-03      0.8302014764E-02
          0                 8           1            31   31     2       0.9166957572E-05      32   32    2         0.4394244274E-03      0.7201426985E-02

    ------------------------------------------------
       NWT REQUIRED            8 OUTER ITERATIONS 
       AND A TOTAL OF          8 INNER ITERATIONS.
    ------------------------------------------------

 OUTPUT CONTROL FOR STRESS PERIOD    1   TIME STEP  362
    SAVE HEAD FOR ALL LAYERS
 SOLVING FOR ZETA FOR LAYER     1 ZONE     2

     618 UPPER PART EQS.       612 LOWER PART EQS.    BAND WIDTH + 1 =   29
 STRESS PERIOD=  1 TIMESTEP=362 LAYER=  1 ZONE=  2 ACTIVE CELLS= 1230 NUMBER OF EQUATIONS=    1230
 SOLVING FOR ZETA FOR LAYER     2 ZONE     2

     533 UPPER PART EQS.       540 LOWER PART EQS.    BAND WIDTH + 1 =   32
 STRESS PERIOD=  1 TIMESTEP=362 LAYER=  2 ZONE=  2 ACTIVE CELLS= 1073 NUMBER OF EQUATIONS=    1073
 UBUDSV SAVING "      ZETASRF  1" ON UNIT 55 AT TIME STEP362, STRESS PERIOD    1

 HEAD WILL BE SAVED ON UNIT   51 AT END OF TIME STEP  362, STRESS PERIOD    1
 
 SOLVING FOR HEAD 
                                                   Max.-Head-Change                         Max.-Flux-Residual
  Residual-Control   Outer-Iter.   Inner-Iter.     Column Row Layer    Maximum-Head-Change  Column Row Layer    Maximum-Flux-Residual          L2-NORM 
          0                 1           1             8   26     1      -0.5920286495E-03      54   27    1        -0.4835370215E+00      0.4595982486E+01
          0                 2           1            11   31     2      -0.4468533396E-04      36   53    1         0.8967488895E-02      0.1038795050E+00
          0                 3           1            40   35     1       0.3150958926E-04      44   24    2         0.1599310988E-02      0.3229951108E-01
          0                 4           1            36   32     2       0.1930720445E-04      42   26    2         0.1169300850E-02      0.2112816360E-01
          0                 5           1            31   31     2       0.2693558315E-04      32   32    2         0.9799439398E-03      0.1778841324E-01
          0                 6           1            30   31     1       0.1641629254E-04      29   31    2         0.8415907721E-03      0.1584569758E-01
          0                 7           1            31   31     2       0.2048909059E-04      32   32    2         0.7549888251E-03      0.1411561994E-01
          0                 8           1            29   32     1       0.1267429723E-04      42   26    2         0.6661099715E-03      0.1281143654E-01
          0                 9           1            32   32     2       0.1510249043E-04      32   32    2         0.5764096309E-03      0.1143562482E-01
          0                10           1            29   32     1       0.1013404103E-04      42   26    2         0.5607113513E-03      0.1040647595E-01
                                                   Max.-Head-Change                         Max.-Flux-Residual
  Residual-Control   Outer-Iter.   Inner-Iter.     Column Row Layer    Maximum-Head-Change  Column Row Layer    Maximum-Flux-Residual          L2-NORM 
          0                11           1            32   32     2       0.1169929785E-04      33   31    2         0.4595305323E-03      0.9309937010E-02
          0                12           1            29   32     1       0.8188399087E-05      42   26    2         0.4723505382E-03      0.8474775573E-02

    ------------------------------------------------
       NWT REQUIRED           12 OUTER ITERATIONS 
       AND A TOTAL OF         12 INNER ITERATIONS.
    ------------------------------------------------

 OUTPUT CONTROL FOR STRESS PERIOD    1   TIME STEP  363
    SAVE HEAD FOR ALL LAYERS
 SOLVING FOR ZETA FOR LAYER     1 ZONE     2

     624 UPPER PART EQS.       616 LOWER PART EQS.    BAND WIDTH + 1 =   29
 STRESS PERIOD=  1 TIMESTEP=363 LAYER=  1 ZONE=  2 ACTIVE CELLS= 1240 NUMBER OF EQUATIONS=    1240
 SOLVING FOR ZETA FOR LAYER     2 ZONE     2

     535 UPPER PART EQS.       540 LOWER PART EQS.    BAND WIDTH + 1 =   32
 STRESS PERIOD=  1 TIMESTEP=363 LAYER=  2 ZONE=  2 ACTIVE CELLS= 1075 NUMBER OF EQUATIONS=    1075
 UBUDSV SAVING "      ZETASRF  1" ON UNIT 55 AT TIME STEP363, STRESS PERIOD    1

 HEAD WILL BE SAVED ON UNIT   51 AT END OF TIME STEP  363, STRESS PERIOD    1
 
 SOLVING FOR HEAD 
                                                   Max.-Head-Change                         Max.-Flux-Residual
  Residual-Control   Outer-Iter.   Inner-Iter.     Column Row Layer    Maximum-Head-Change  Column Row Layer    Maximum-Flux-Residual          L2-NORM 
          0                 1           1            32    8     1      -0.6427422215E-03      54   34    1        -0.4888818989E+00      0.4530347395E+01
          0                 2           1            24   50     2      -0.4838253723E-04      36   53    1        -0.9924366261E-02      0.1101027848E+00
          0                 3           1            30   21     1       0.3235562620E-04      36   52    2        -0.2105256423E-02      0.3421868004E-01
          0                 4           1            31   26     1       0.1667673397E-04      32   25    1         0.1013130111E-02      0.1820991374E-01
          0                 5           1            31   30     1       0.1862562718E-04      31   29    2         0.7925944110E-03      0.1233731381E-01
          0                 6           1            31   31     2       0.1104322827E-04      32   32    2         0.6283311257E-03      0.9228795408E-02
          0                 7           1            31   31     2       0.1265726878E-04      30   30    2         0.5127340557E-03      0.7473886294E-02
          0                 8           1            31   31     2       0.7694906282E-05      32   32    2         0.3988347762E-03      0.6434222195E-02

    ------------------------------------------------
       NWT REQUIRED            8 OUTER ITERATIONS 
       AND A TOTAL OF          8 INNER ITERATIONS.
    ------------------------------------------------

 OUTPUT CONTROL FOR STRESS PERIOD    1   TIME STEP  364
    SAVE HEAD FOR ALL LAYERS
 SOLVING FOR ZETA FOR LAYER     1 ZONE     2

     605 UPPER PART EQS.       612 LOWER PART EQS.    BAND WIDTH + 1 =   28
 STRESS PERIOD=  1 TIMESTEP=364 LAYER=  1 ZONE=  2 ACTIVE CELLS= 1217 NUMBER OF EQUATIONS=    1217
 SOLVING FOR ZETA FOR LAYER     2 ZONE     2

     537 UPPER PART EQS.       540 LOWER PART EQS.    BAND WIDTH + 1 =   32
 STRESS PERIOD=  1 TIMESTEP=364 LAYER=  2 ZONE=  2 ACTIVE CELLS= 1077 NUMBER OF EQUATIONS=    1077
 UBUDSV SAVING "      ZETASRF  1" ON UNIT 55 AT TIME STEP364, STRESS PERIOD    1

 HEAD WILL BE SAVED ON UNIT   51 AT END OF TIME STEP  364, STRESS PERIOD    1
 
 SOLVING FOR HEAD 
                                                   Max.-Head-Change                         Max.-Flux-Residual
  Residual-Control   Outer-Iter.   Inner-Iter.     Column Row Layer    Maximum-Head-Change  Column Row Layer    Maximum-Flux-Residual          L2-NORM 
          0                 1           1             8   26     1      -0.5966048664E-03      54   27    1        -0.4867109356E+00      0.4713884023E+01
          0                 2           1            11   31     2      -0.4035037805E-04      36   53    1         0.8847875818E-02      0.1034877292E+00
          0                 3           1            40   39     1       0.3074281791E-04      45   23    2         0.1720551951E-02      0.3177284900E-01
          0                 4           1            35   28     1       0.1821718354E-04      41   23    2         0.1082332310E-02      0.2026595013E-01
          0                 5           1            32   32     2       0.2524045609E-04      32   32    2         0.9235973142E-03      0.1694988086E-01
          0                 6           1            32   32     2       0.1602541607E-04      34   30    2         0.7981985258E-03      0.1508572638E-01
          0                 7           1            32   32     2       0.1892615377E-04      32   32    2         0.7177256366E-03      0.1346921371E-01
          0                 8           1            30   31     1       0.1252007174E-04      43   29    2         0.6304347418E-03      0.1220023661E-01
          0                 9           1            32   32     2       0.1387332372E-04      32   32    2         0.5501121548E-03      0.1093009591E-01
          0                10           1            29   32     1       0.1004523761E-04      43   29    2         0.5177509877E-03      0.9915332077E-02
                                                   Max.-Head-Change                         Max.-Flux-Residual
  Residual-Control   Outer-Iter.   Inner-Iter.     Column Row Layer    Maximum-Head-Change  Column Row Layer    Maximum-Flux-Residual          L2-NORM 
          0                11           1            32   31     1       0.1075945122E-04      39   29    2         0.4478767685E-03      0.8910805580E-02
          0                12           1            29   32     1       0.8126909090E-05      41   23    2         0.4331633133E-03      0.8082320990E-02

    ------------------------------------------------
       NWT REQUIRED           12 OUTER ITERATIONS 
       AND A TOTAL OF         12 INNER ITERATIONS.
    ------------------------------------------------

 OUTPUT CONTROL FOR STRESS PERIOD    1   TIME STEP  365
    SAVE HEAD FOR ALL LAYERS
 SOLVING FOR ZETA FOR LAYER     1 ZONE     2

     619 UPPER PART EQS.       610 LOWER PART EQS.    BAND WIDTH + 1 =   28
 STRESS PERIOD=  1 TIMESTEP=365 LAYER=  1 ZONE=  2 ACTIVE CELLS= 1229 NUMBER OF EQUATIONS=    1229
 SOLVING FOR ZETA FOR LAYER     2 ZONE     2

     541 UPPER PART EQS.       540 LOWER PART EQS.    BAND WIDTH + 1 =   32
 STRESS PERIOD=  1 TIMESTEP=365 LAYER=  2 ZONE=  2 ACTIVE CELLS= 1081 NUMBER OF EQUATIONS=    1081
 UBUDSV SAVING "      ZETASRF  1" ON UNIT 55 AT TIME STEP365, STRESS PERIOD    1

 HEAD WILL BE SAVED ON UNIT   51 AT END OF TIME STEP  365, STRESS PERIOD    1
 
 SOLVING FOR HEAD 
                                                   Max.-Head-Change                         Max.-Flux-Residual
  Residual-Control   Outer-Iter.   Inner-Iter.     Column Row Layer    Maximum-Head-Change  Column Row Layer    Maximum-Flux-Residual          L2-NORM 
          0                 1           1             8   31     1      -0.6450213285E-03      54   34    1        -0.4920586675E+00      0.4522756446E+01
          0                 2           1            22   50     2      -0.5017911821E-04      36   53    1        -0.9539910020E-02      0.1084941129E+00
          0                 3           1            40   31     1       0.2765249844E-04      36   52    2        -0.1856604378E-02      0.3471263966E-01
          0                 4           1            35   31     2       0.1757424767E-04      36   32    2         0.9872379064E-03      0.1935592219E-01
          0                 5           1            31   31     2       0.2101663395E-04      31   29    2         0.9115511989E-03      0.1369905055E-01
          0                 6           1            30   31     1       0.1316791033E-04      30   30    2         0.7171786984E-03      0.1065064148E-01
          0                 7           1            31   31     2       0.1464260398E-04      30   30    2         0.5958706056E-03      0.8861564490E-02
          0                 8           1            30   31     1       0.9221324185E-05      30   30    2         0.4629734347E-03      0.7726616162E-02

    ------------------------------------------------
       NWT REQUIRED            8 OUTER ITERATIONS 
       AND A TOTAL OF          8 INNER ITERATIONS.
    ------------------------------------------------

 OUTPUT CONTROL FOR STRESS PERIOD    1   TIME STEP  366
    SAVE HEAD FOR ALL LAYERS
 SOLVING FOR ZETA FOR LAYER     1 ZONE     2

     616 UPPER PART EQS.       618 LOWER PART EQS.    BAND WIDTH + 1 =   23
 STRESS PERIOD=  1 TIMESTEP=366 LAYER=  1 ZONE=  2 ACTIVE CELLS= 1234 NUMBER OF EQUATIONS=    1234
 SOLVING FOR ZETA FOR LAYER     2 ZONE     2

     541 UPPER PART EQS.       540 LOWER PART EQS.    BAND WIDTH + 1 =   32
 STRESS PERIOD=  1 TIMESTEP=366 LAYER=  2 ZONE=  2 ACTIVE CELLS= 1081 NUMBER OF EQUATIONS=    1081
 UBUDSV SAVING "      ZETASRF  1" ON UNIT 55 AT TIME STEP366, STRESS PERIOD    1

 HEAD WILL BE SAVED ON UNIT   51 AT END OF TIME STEP  366, STRESS PERIOD    1
 
 SOLVING FOR HEAD 
                                                   Max.-Head-Change                         Max.-Flux-Residual
  Residual-Control   Outer-Iter.   Inner-Iter.     Column Row Layer    Maximum-Head-Change  Column Row Layer    Maximum-Flux-Residual          L2-NORM 
          0                 1           1            36   54     1      -0.5994447532E-03      54   27    1        -0.4901334369E+00      0.4657874894E+01
          0                 2           1            30   50     2      -0.4761302335E-04      11   30    1         0.1014192532E-01      0.1045196071E+00
          0                 3           1            32   21     1       0.2754806987E-04      29   51    2        -0.1868613349E-02      0.2936725498E-01
          0                 4           1            32   25     1       0.1805076756E-04      33   24    1         0.1001277860E-02      0.1846809906E-01
          0                 5           1            31   33     2       0.2105442986E-04      32   36    2         0.8241160383E-03      0.1526426521E-01
          0                 6           1            31   31     2       0.1502105068E-04      32   32    2         0.7240432859E-03      0.1355015832E-01
          0                 7           1            31   31     2       0.1620595459E-04      30   30    2         0.6328362109E-03      0.1213075277E-01
          0                 8           1            32   32     2       0.1170712376E-04      33   31    2         0.5499063327E-03      0.1102048149E-01
          0                 9           1            32   31     1       0.1205897840E-04      18   38    2         0.4914949796E-03      0.9885221203E-02
          0                10           1            32   32     2       0.9326709464E-05      16   33    1         0.4389428831E-03      0.8992750516E-02

    ------------------------------------------------
       NWT REQUIRED           10 OUTER ITERATIONS 
       AND A TOTAL OF         10 INNER ITERATIONS.
    ------------------------------------------------

 OUTPUT CONTROL FOR STRESS PERIOD    1   TIME STEP  367
    SAVE HEAD FOR ALL LAYERS
 SOLVING FOR ZETA FOR LAYER     1 ZONE     2

     614 UPPER PART EQS.       608 LOWER PART EQS.    BAND WIDTH + 1 =   25
 STRESS PERIOD=  1 TIMESTEP=367 LAYER=  1 ZONE=  2 ACTIVE CELLS= 1222 NUMBER OF EQUATIONS=    1222
 SOLVING FOR ZETA FOR LAYER     2 ZONE     2

     541 UPPER PART EQS.       540 LOWER PART EQS.    BAND WIDTH + 1 =   32
 STRESS PERIOD=  1 TIMESTEP=367 LAYER=  2 ZONE=  2 ACTIVE CELLS= 1081 NUMBER OF EQUATIONS=    1081
 UBUDSV SAVING "      ZETASRF  1" ON UNIT 55 AT TIME STEP367, STRESS PERIOD    1

 HEAD WILL BE SAVED ON UNIT   51 AT END OF TIME STEP  367, STRESS PERIOD    1
 
 SOLVING FOR HEAD 
                                                   Max.-Head-Change                         Max.-Flux-Residual
  Residual-Control   Outer-Iter.   Inner-Iter.     Column Row Layer    Maximum-Head-Change  Column Row Layer    Maximum-Flux-Residual          L2-NORM 
          0                 1           1             8   31     1      -0.6527165112E-03      54   34    1        -0.4953232474E+00      0.4544976804E+01
          0                 2           1            39   49     2      -0.5165869023E-04      11   30    1        -0.1053867754E-01      0.1118271180E+00
          0                 3           1            40   31     1       0.3419259108E-04      36   52    2        -0.2005825803E-02      0.3734711772E-01
          0                 4           1            35   31     2       0.2077616037E-04      36   32    2         0.1189697632E-02      0.2145847224E-01
          0                 5           1            31   31     2       0.2432874797E-04      33   31    2         0.1037745765E-02      0.1570475890E-01
          0                 6           1            30   31     1       0.1529175706E-04      30   30    2         0.8206092401E-03      0.1261239109E-01
          0                 7           1            31   31     2       0.1745008135E-04      32   32    2         0.6993225401E-03      0.1072414179E-01
          0                 8           1            30   31     1       0.1087703168E-04      29   31    2         0.5446521527E-03      0.9456419383E-02
          0                 9           1            32   32     2       0.1181411616E-04      33   31    2         0.4768204994E-03      0.8411508151E-02
          0                10           1            30   31     1       0.8411515190E-05      43   33    2         0.4146579760E-03      0.7628401558E-02

    ------------------------------------------------
       NWT REQUIRED           10 OUTER ITERATIONS 
       AND A TOTAL OF         10 INNER ITERATIONS.
    ------------------------------------------------

 OUTPUT CONTROL FOR STRESS PERIOD    1   TIME STEP  368
    SAVE HEAD FOR ALL LAYERS
 SOLVING FOR ZETA FOR LAYER     1 ZONE     2

     613 UPPER PART EQS.       610 LOWER PART EQS.    BAND WIDTH + 1 =   26
 STRESS PERIOD=  1 TIMESTEP=368 LAYER=  1 ZONE=  2 ACTIVE CELLS= 1223 NUMBER OF EQUATIONS=    1223
 SOLVING FOR ZETA FOR LAYER     2 ZONE     2

     541 UPPER PART EQS.       540 LOWER PART EQS.    BAND WIDTH + 1 =   32
 STRESS PERIOD=  1 TIMESTEP=368 LAYER=  2 ZONE=  2 ACTIVE CELLS= 1081 NUMBER OF EQUATIONS=    1081
 UBUDSV SAVING "      ZETASRF  1" ON UNIT 55 AT TIME STEP368, STRESS PERIOD    1

 HEAD WILL BE SAVED ON UNIT   51 AT END OF TIME STEP  368, STRESS PERIOD    1
 
 SOLVING FOR HEAD 
                                                   Max.-Head-Change                         Max.-Flux-Residual
  Residual-Control   Outer-Iter.   Inner-Iter.     Column Row Layer    Maximum-Head-Change  Column Row Layer    Maximum-Flux-Residual          L2-NORM 
          0                 1           1            26    8     1      -0.6030407712E-03      54   27    1        -0.4933437690E+00      0.4731397174E+01
          0                 2           1            30   50     2      -0.3398872976E-04      36   53    1         0.9379614841E-02      0.9979842427E-01
          0                 3           1            23   22     1       0.2503327916E-04      24   21    1         0.1413994014E-02      0.2615252174E-01
          0                 4           1            31   26     1       0.1442495630E-04      41   23    2         0.8242345059E-03      0.1623539774E-01
          0                 5           1            31   31     2       0.1916252276E-04      31   29    2         0.7221331404E-03      0.1339260135E-01
          0                 6           1            30   31     1       0.1293723055E-04      32   32    2         0.6307004847E-03      0.1193470651E-01
          0                 7           1            31   31     2       0.1402285212E-04      31   33    2         0.5550568326E-03      0.1068384285E-01
          0                 8           1            30   31     1       0.1041608470E-04      17   32    1         0.5213556006E-03      0.9700249599E-02
          0                 9           1            32   31     1       0.1011671032E-04      17   32    1         0.4524551604E-03      0.8724482108E-02
          0                10           1            29   32     1       0.8513753536E-05      17   32    1         0.4305881779E-03      0.7906044687E-02

    ------------------------------------------------
       NWT REQUIRED           10 OUTER ITERATIONS 
       AND A TOTAL OF         10 INNER ITERATIONS.
    ------------------------------------------------

 OUTPUT CONTROL FOR STRESS PERIOD    1   TIME STEP  369
    SAVE HEAD FOR ALL LAYERS
 SOLVING FOR ZETA FOR LAYER     1 ZONE     2

     619 UPPER PART EQS.       608 LOWER PART EQS.    BAND WIDTH + 1 =   30
 STRESS PERIOD=  1 TIMESTEP=369 LAYER=  1 ZONE=  2 ACTIVE CELLS= 1227 NUMBER OF EQUATIONS=    1227
 SOLVING FOR ZETA FOR LAYER     2 ZONE     2

     541 UPPER PART EQS.       540 LOWER PART EQS.    BAND WIDTH + 1 =   32
 STRESS PERIOD=  1 TIMESTEP=369 LAYER=  2 ZONE=  2 ACTIVE CELLS= 1081 NUMBER OF EQUATIONS=    1081
 UBUDSV SAVING "      ZETASRF  1" ON UNIT 55 AT TIME STEP369, STRESS PERIOD    1

 HEAD WILL BE SAVED ON UNIT   51 AT END OF TIME STEP  369, STRESS PERIOD    1
 
 SOLVING FOR HEAD 
                                                   Max.-Head-Change                         Max.-Flux-Residual
  Residual-Control   Outer-Iter.   Inner-Iter.     Column Row Layer    Maximum-Head-Change  Column Row Layer    Maximum-Flux-Residual          L2-NORM 
          0                 1           1             8   31     1      -0.6571721434E-03      54   34    1        -0.4987232081E+00      0.4694628875E+01
          0                 2           1            39   49     2      -0.4858279325E-04      36   53    1        -0.1010048995E-01      0.1088866882E+00
          0                 3           1            41   32     1       0.2667502395E-04      36   52    2        -0.2056277254E-02      0.3428217636E-01
          0                 4           1            34   29     1       0.1713052237E-04      36   32    2         0.9616497590E-03      0.1895278633E-01
          0                 5           1            32   32     2       0.2056043067E-04      33   31    2         0.8838195802E-03      0.1330697019E-01
          0                 6           1            31   31     2       0.1250785073E-04      30   30    2         0.6883431192E-03      0.1028820146E-01
          0                 7           1            31   31     2       0.1431370913E-04      33   31    2         0.5775329817E-03      0.8521443384E-02
          0                 8           1            31   31     2       0.8642859712E-05      32   32    2         0.4422715911E-03      0.7439026441E-02

    ------------------------------------------------
       NWT REQUIRED            8 OUTER ITERATIONS 
       AND A TOTAL OF          8 INNER ITERATIONS.
    ------------------------------------------------

 OUTPUT CONTROL FOR STRESS PERIOD    1   TIME STEP  370
    SAVE HEAD FOR ALL LAYERS
 SOLVING FOR ZETA FOR LAYER     1 ZONE     2

     608 UPPER PART EQS.       602 LOWER PART EQS.    BAND WIDTH + 1 =   29
 STRESS PERIOD=  1 TIMESTEP=370 LAYER=  1 ZONE=  2 ACTIVE CELLS= 1210 NUMBER OF EQUATIONS=    1210
 SOLVING FOR ZETA FOR LAYER     2 ZONE     2

     541 UPPER PART EQS.       540 LOWER PART EQS.    BAND WIDTH + 1 =   32
 STRESS PERIOD=  1 TIMESTEP=370 LAYER=  2 ZONE=  2 ACTIVE CELLS= 1081 NUMBER OF EQUATIONS=    1081
 UBUDSV SAVING "      ZETASRF  1" ON UNIT 55 AT TIME STEP370, STRESS PERIOD    1

 HEAD WILL BE SAVED ON UNIT   51 AT END OF TIME STEP  370, STRESS PERIOD    1
 
 SOLVING FOR HEAD 
                                                   Max.-Head-Change                         Max.-Flux-Residual
  Residual-Control   Outer-Iter.   Inner-Iter.     Column Row Layer    Maximum-Head-Change  Column Row Layer    Maximum-Flux-Residual          L2-NORM 
          0                 1           1            26    8     1      -0.6111147660E-03      54   27    1        -0.4965225215E+00      0.4707351125E+01
          0                 2           1            30   50     2      -0.4449911349E-04      28   53    1        -0.9811846140E-02      0.1063524206E+00
          0                 3           1            23   22     1       0.3253468344E-04      24   21    1         0.1789385222E-02      0.3468008947E-01
          0                 4           1            35   37     2       0.2064008458E-04      35   37    2         0.1147290874E-02      0.2316573681E-01
          0                 5           1            31   31     2       0.2849936911E-04      32   32    2         0.1035368331E-02      0.1967352421E-01
          0                 6           1            30   31     1       0.1839783532E-04      30   30    2         0.9091750738E-03      0.1759200172E-01
          0                 7           1            31   31     2       0.2186061049E-04      32   32    2         0.8213259792E-03      0.1574137137E-01
          0                 8           1            30   31     1       0.1438312666E-04      42   26    2         0.7442113454E-03      0.1426722378E-01
          0                 9           1            31   31     2       0.1635568548E-04      32   32    2         0.6368860585E-03      0.1278285620E-01
          0                10           1            29   32     1       0.1151347010E-04      42   26    2         0.6368636199E-03      0.1160276746E-01
                                                   Max.-Head-Change                         Max.-Flux-Residual
  Residual-Control   Outer-Iter.   Inner-Iter.     Column Row Layer    Maximum-Head-Change  Column Row Layer    Maximum-Flux-Residual          L2-NORM 
          0                11           1            32   31     1       0.1286361201E-04      39   29    2         0.5206048363E-03      0.1041402703E-01
          0                12           1            29   32     1       0.9278163022E-05      42   26    2         0.5421781285E-03      0.9455419515E-02

    ------------------------------------------------
       NWT REQUIRED           12 OUTER ITERATIONS 
       AND A TOTAL OF         12 INNER ITERATIONS.
    ------------------------------------------------

 OUTPUT CONTROL FOR STRESS PERIOD    1   TIME STEP  371
    SAVE HEAD FOR ALL LAYERS
 SOLVING FOR ZETA FOR LAYER     1 ZONE     2

     620 UPPER PART EQS.       602 LOWER PART EQS.    BAND WIDTH + 1 =   37
 STRESS PERIOD=  1 TIMESTEP=371 LAYER=  1 ZONE=  2 ACTIVE CELLS= 1222 NUMBER OF EQUATIONS=    1222
 SOLVING FOR ZETA FOR LAYER     2 ZONE     2

     541 UPPER PART EQS.       540 LOWER PART EQS.    BAND WIDTH + 1 =   32
 STRESS PERIOD=  1 TIMESTEP=371 LAYER=  2 ZONE=  2 ACTIVE CELLS= 1081 NUMBER OF EQUATIONS=    1081
 UBUDSV SAVING "      ZETASRF  1" ON UNIT 55 AT TIME STEP371, STRESS PERIOD    1

 HEAD WILL BE SAVED ON UNIT   51 AT END OF TIME STEP  371, STRESS PERIOD    1
 
 SOLVING FOR HEAD 
                                                   Max.-Head-Change                         Max.-Flux-Residual
  Residual-Control   Outer-Iter.   Inner-Iter.     Column Row Layer    Maximum-Head-Change  Column Row Layer    Maximum-Flux-Residual          L2-NORM 
          0                 1           1             8   31     1      -0.6597986999E-03      54   34    1        -0.5022159286E+00      0.4700924430E+01
          0                 2           1            22   50     2      -0.4793414287E-04      36   53    1        -0.9865951614E-02      0.1052234488E+00
          0                 3           1            21   51     2      -0.2432985758E-04      36   52    2        -0.1743780653E-02      0.2979645589E-01
          0                 4           1            31   28     1       0.1394835283E-04      36   53    1        -0.8144204210E-03      0.1586054769E-01
          0                 5           1            31   31     2       0.1523557924E-04      31   29    2         0.6816280001E-03      0.1036315799E-01
          0                 6           1            30   31     1       0.8921759871E-05      30   30    2         0.5149956929E-03      0.7354450698E-02

    ------------------------------------------------
       NWT REQUIRED            6 OUTER ITERATIONS 
       AND A TOTAL OF          6 INNER ITERATIONS.
    ------------------------------------------------

 OUTPUT CONTROL FOR STRESS PERIOD    1   TIME STEP  372
    SAVE HEAD FOR ALL LAYERS
 SOLVING FOR ZETA FOR LAYER     1 ZONE     2

     603 UPPER PART EQS.       608 LOWER PART EQS.    BAND WIDTH + 1 =   26
 STRESS PERIOD=  1 TIMESTEP=372 LAYER=  1 ZONE=  2 ACTIVE CELLS= 1211 NUMBER OF EQUATIONS=    1211
 SOLVING FOR ZETA FOR LAYER     2 ZONE     2

     541 UPPER PART EQS.       540 LOWER PART EQS.    BAND WIDTH + 1 =   32
 STRESS PERIOD=  1 TIMESTEP=372 LAYER=  2 ZONE=  2 ACTIVE CELLS= 1081 NUMBER OF EQUATIONS=    1081
 UBUDSV SAVING "      ZETASRF  1" ON UNIT 55 AT TIME STEP372, STRESS PERIOD    1

 HEAD WILL BE SAVED ON UNIT   51 AT END OF TIME STEP  372, STRESS PERIOD    1
 
 SOLVING FOR HEAD 
                                                   Max.-Head-Change                         Max.-Flux-Residual
  Residual-Control   Outer-Iter.   Inner-Iter.     Column Row Layer    Maximum-Head-Change  Column Row Layer    Maximum-Flux-Residual          L2-NORM 
          0                 1           1             8   26     1      -0.6176798200E-03      54   27    1        -0.4996650332E+00      0.4825608409E+01
          0                 2           1            11   29     2      -0.4426293444E-04      28   53    1        -0.9239291880E-02      0.1073970397E+00
          0                 3           1            40   37     1       0.3049703347E-04      45   23    2         0.1608876437E-02      0.3173132914E-01
          0                 4           1            36   34     2       0.1980361272E-04      41   23    2         0.1132297584E-02      0.2051439291E-01
          0                 5           1            33   31     2       0.2506480007E-04      33   31    2         0.9541007360E-03      0.1718870966E-01
          0                 6           1            33   31     2       0.1636156858E-04      36   32    2         0.8248663164E-03      0.1536485352E-01
          0                 7           1            32   32     2       0.1950943371E-04      32   32    2         0.7349792675E-03      0.1371241544E-01
          0                 8           1            31   32     1       0.1237650526E-04      43   29    2         0.6552201746E-03      0.1249683982E-01
          0                 9           1            32   32     2       0.1462058458E-04      33   31    2         0.5623224023E-03      0.1113840583E-01
          0                10           1            30   31     1       0.9768835448E-05      43   29    2         0.5397434596E-03      0.1017741316E-01

    ------------------------------------------------
       NWT REQUIRED           10 OUTER ITERATIONS 
       AND A TOTAL OF         10 INNER ITERATIONS.
    ------------------------------------------------

 OUTPUT CONTROL FOR STRESS PERIOD    1   TIME STEP  373
    SAVE HEAD FOR ALL LAYERS
 SOLVING FOR ZETA FOR LAYER     1 ZONE     2

     606 UPPER PART EQS.       598 LOWER PART EQS.    BAND WIDTH + 1 =   27
 STRESS PERIOD=  1 TIMESTEP=373 LAYER=  1 ZONE=  2 ACTIVE CELLS= 1204 NUMBER OF EQUATIONS=    1204
 SOLVING FOR ZETA FOR LAYER     2 ZONE     2

     541 UPPER PART EQS.       540 LOWER PART EQS.    BAND WIDTH + 1 =   32
 STRESS PERIOD=  1 TIMESTEP=373 LAYER=  2 ZONE=  2 ACTIVE CELLS= 1081 NUMBER OF EQUATIONS=    1081
 UBUDSV SAVING "      ZETASRF  1" ON UNIT 55 AT TIME STEP373, STRESS PERIOD    1

 HEAD WILL BE SAVED ON UNIT   51 AT END OF TIME STEP  373, STRESS PERIOD    1
 
 SOLVING FOR HEAD 
                                                   Max.-Head-Change                         Max.-Flux-Residual
  Residual-Control   Outer-Iter.   Inner-Iter.     Column Row Layer    Maximum-Head-Change  Column Row Layer    Maximum-Flux-Residual          L2-NORM 
          0                 1           1            32    8     1      -0.6684167529E-03      54   34    1        -0.5056918514E+00      0.4676846155E+01
          0                 2           1            24   50     2      -0.5393621634E-04      36   53    1        -0.1023669210E-01      0.1127612168E+00
          0                 3           1            28   21     1       0.3056615958E-04      36   52    2        -0.2152980913E-02      0.3705431210E-01
          0                 4           1            31   26     1       0.1968121528E-04      32   24    2         0.1108334647E-02      0.2098937119E-01
          0                 5           1            31   31     2       0.2288163264E-04      31   29    2         0.9783816809E-03      0.1532678698E-01
          0                 6           1            30   31     1       0.1540107284E-04      30   30    2         0.7994989390E-03      0.1237394815E-01
          0                 7           1            31   31     2       0.1631589242E-04      30   30    2         0.6718066896E-03      0.1057101237E-01
          0                 8           1            30   31     1       0.1130442471E-04      30   30    2         0.5374248796E-03      0.9380504259E-02
          0                 9           1            31   31     2       0.1088880229E-04      30   30    2         0.4585022558E-03      0.8361180704E-02
          0                10           1            30   31     1       0.8819199014E-05      32   32    2         0.3890524725E-03      0.7593032793E-02

    ------------------------------------------------
       NWT REQUIRED           10 OUTER ITERATIONS 
       AND A TOTAL OF         10 INNER ITERATIONS.
    ------------------------------------------------

 OUTPUT CONTROL FOR STRESS PERIOD    1   TIME STEP  374
    SAVE HEAD FOR ALL LAYERS
 SOLVING FOR ZETA FOR LAYER     1 ZONE     2

     604 UPPER PART EQS.       606 LOWER PART EQS.    BAND WIDTH + 1 =   23
 STRESS PERIOD=  1 TIMESTEP=374 LAYER=  1 ZONE=  2 ACTIVE CELLS= 1210 NUMBER OF EQUATIONS=    1210
 SOLVING FOR ZETA FOR LAYER     2 ZONE     2

     541 UPPER PART EQS.       540 LOWER PART EQS.    BAND WIDTH + 1 =   32
 STRESS PERIOD=  1 TIMESTEP=374 LAYER=  2 ZONE=  2 ACTIVE CELLS= 1081 NUMBER OF EQUATIONS=    1081
 UBUDSV SAVING "      ZETASRF  1" ON UNIT 55 AT TIME STEP374, STRESS PERIOD    1

 HEAD WILL BE SAVED ON UNIT   51 AT END OF TIME STEP  374, STRESS PERIOD    1
 
 SOLVING FOR HEAD 
                                                   Max.-Head-Change                         Max.-Flux-Residual
  Residual-Control   Outer-Iter.   Inner-Iter.     Column Row Layer    Maximum-Head-Change  Column Row Layer    Maximum-Flux-Residual          L2-NORM 
          0                 1           1             8   26     1      -0.6190523986E-03      54   27    1        -0.5030068462E+00      0.4929913244E+01
          0                 2           1            30   50     2      -0.3408015388E-04      36   53    1         0.9634160254E-02      0.1014449973E+00
          0                 3           1            23   22     1       0.2310063767E-04      45   40    1         0.1442061058E-02      0.2589165773E-01
          0                 4           1            29   28     1       0.1529632527E-04      19   41    2         0.9459760161E-03      0.1656161098E-01
          0                 5           1            30   32     2       0.1900700015E-04      31   29    2         0.7446887292E-03      0.1375608848E-01
          0                 6           1            30   31     1       0.1380183575E-04      30   30    2         0.6511933592E-03      0.1227272928E-01
          0                 7           1            31   31     2       0.1417101575E-04      32   32    2         0.5747713677E-03      0.1098644532E-01
          0                 8           1            29   32     1       0.1100601698E-04      30   30    2         0.4966407485E-03      0.9970632867E-02
          0                 9           1            31   30     1       0.1042878693E-04      19   41    2         0.4789157241E-03      0.8959275863E-02
          0                10           1            29   32     1       0.8897381019E-05      42   26    2         0.4067766765E-03      0.8131252761E-02

    ------------------------------------------------
       NWT REQUIRED           10 OUTER ITERATIONS 
       AND A TOTAL OF         10 INNER ITERATIONS.
    ------------------------------------------------

 OUTPUT CONTROL FOR STRESS PERIOD    1   TIME STEP  375
    SAVE HEAD FOR ALL LAYERS
 SOLVING FOR ZETA FOR LAYER     1 ZONE     2

     608 UPPER PART EQS.       598 LOWER PART EQS.    BAND WIDTH + 1 =   30
 STRESS PERIOD=  1 TIMESTEP=375 LAYER=  1 ZONE=  2 ACTIVE CELLS= 1206 NUMBER OF EQUATIONS=    1206
 SOLVING FOR ZETA FOR LAYER     2 ZONE     2

     541 UPPER PART EQS.       544 LOWER PART EQS.    BAND WIDTH + 1 =   32
 STRESS PERIOD=  1 TIMESTEP=375 LAYER=  2 ZONE=  2 ACTIVE CELLS= 1085 NUMBER OF EQUATIONS=    1085
 UBUDSV SAVING "      ZETASRF  1" ON UNIT 55 AT TIME STEP375, STRESS PERIOD    1

 HEAD WILL BE SAVED ON UNIT   51 AT END OF TIME STEP  375, STRESS PERIOD    1
 
 SOLVING FOR HEAD 
                                                   Max.-Head-Change                         Max.-Flux-Residual
  Residual-Control   Outer-Iter.   Inner-Iter.     Column Row Layer    Maximum-Head-Change  Column Row Layer    Maximum-Flux-Residual          L2-NORM 
          0                 1           1             8   31     1      -0.6755321865E-03      54   34    1        -0.5089183819E+00      0.4861019912E+01
          0                 2           1            39   49     2      -0.5231224862E-04      36   53    1        -0.1040287841E-01      0.1113898554E+00
          0                 3           1            41   32     1       0.2682890044E-04      36   52    2        -0.2089843020E-02      0.3485981986E-01
          0                 4           1            34   29     1       0.1767423573E-04      17   47    2        -0.9997575704E-03      0.1933606476E-01
          0                 5           1            32   32     2       0.2076112587E-04      33   31    2         0.8992174276E-03      0.1358713907E-01
          0                 6           1            31   31     2       0.1288912197E-04      32   32    2         0.7030504577E-03      0.1055102661E-01
          0                 7           1            32   32     2       0.1461908660E-04      33   31    2         0.5938752913E-03      0.8759335623E-02
          0                 8           1            31   31     2       0.8946572352E-05      32   32    2         0.4553659838E-03      0.7636570100E-02

    ------------------------------------------------
       NWT REQUIRED            8 OUTER ITERATIONS 
       AND A TOTAL OF          8 INNER ITERATIONS.
    ------------------------------------------------

 OUTPUT CONTROL FOR STRESS PERIOD    1   TIME STEP  376
    SAVE HEAD FOR ALL LAYERS
 SOLVING FOR ZETA FOR LAYER     1 ZONE     2

     598 UPPER PART EQS.       594 LOWER PART EQS.    BAND WIDTH + 1 =   27
 STRESS PERIOD=  1 TIMESTEP=376 LAYER=  1 ZONE=  2 ACTIVE CELLS= 1192 NUMBER OF EQUATIONS=    1192
 SOLVING FOR ZETA FOR LAYER     2 ZONE     2

     541 UPPER PART EQS.       548 LOWER PART EQS.    BAND WIDTH + 1 =   34
 STRESS PERIOD=  1 TIMESTEP=376 LAYER=  2 ZONE=  2 ACTIVE CELLS= 1089 NUMBER OF EQUATIONS=    1089
 UBUDSV SAVING "      ZETASRF  1" ON UNIT 55 AT TIME STEP376, STRESS PERIOD    1

 HEAD WILL BE SAVED ON UNIT   51 AT END OF TIME STEP  376, STRESS PERIOD    1
 
 SOLVING FOR HEAD 
                                                   Max.-Head-Change                         Max.-Flux-Residual
  Residual-Control   Outer-Iter.   Inner-Iter.     Column Row Layer    Maximum-Head-Change  Column Row Layer    Maximum-Flux-Residual          L2-NORM 
          0                 1           1            31   54     1       0.6238876883E-03      54   27    1        -0.5062746367E+00      0.4956763521E+01
          0                 2           1            30   50     2      -0.3304877775E-04      36   53    1         0.9824527512E-02      0.1033543983E+00
          0                 3           1            23   22     1       0.2313019434E-04      24   21    1         0.1348979283E-02      0.2531735542E-01
          0                 4           1            30   27     1       0.1383291428E-04      42   26    2         0.8364139903E-03      0.1580976420E-01
          0                 5           1            30   32     2       0.1753175479E-04      31   29    2         0.6857212645E-03      0.1304034893E-01
          0                 6           1            30   31     1       0.1300860663E-04      30   30    2         0.6076795294E-03      0.1167438422E-01
          0                 7           1            30   32     2       0.1277357806E-04      31   33    2         0.5352348500E-03      0.1045938266E-01
          0                 8           1            30   31     1       0.1070252191E-04      33   31    2         0.4674897349E-03      0.9492814047E-02
          0                 9           1            30   32     2       0.9293229620E-05      31   18    1         0.4381357077E-03      0.8567604382E-02

    ------------------------------------------------
       NWT REQUIRED            9 OUTER ITERATIONS 
       AND A TOTAL OF          9 INNER ITERATIONS.
    ------------------------------------------------

 OUTPUT CONTROL FOR STRESS PERIOD    1   TIME STEP  377
    SAVE HEAD FOR ALL LAYERS
 SOLVING FOR ZETA FOR LAYER     1 ZONE     2

     604 UPPER PART EQS.       594 LOWER PART EQS.    BAND WIDTH + 1 =   29
 STRESS PERIOD=  1 TIMESTEP=377 LAYER=  1 ZONE=  2 ACTIVE CELLS= 1198 NUMBER OF EQUATIONS=    1198
 SOLVING FOR ZETA FOR LAYER     2 ZONE     2

     541 UPPER PART EQS.       548 LOWER PART EQS.    BAND WIDTH + 1 =   34
 STRESS PERIOD=  1 TIMESTEP=377 LAYER=  2 ZONE=  2 ACTIVE CELLS= 1089 NUMBER OF EQUATIONS=    1089
 UBUDSV SAVING "      ZETASRF  1" ON UNIT 55 AT TIME STEP377, STRESS PERIOD    1

 HEAD WILL BE SAVED ON UNIT   51 AT END OF TIME STEP  377, STRESS PERIOD    1
 
 SOLVING FOR HEAD 
                                                   Max.-Head-Change                         Max.-Flux-Residual
  Residual-Control   Outer-Iter.   Inner-Iter.     Column Row Layer    Maximum-Head-Change  Column Row Layer    Maximum-Flux-Residual          L2-NORM 
          0                 1           1             8   31     1      -0.6827287076E-03      54   34    1        -0.5122605678E+00      0.4860385572E+01
          0                 2           1            39   49     2      -0.5120533445E-04      36   53    1        -0.1070811249E-01      0.1171817505E+00
          0                 3           1            40   31     1       0.3074497350E-04      36   52    2        -0.2238340101E-02      0.3848028809E-01
          0                 4           1            35   31     2       0.2030215521E-04      36   36    2         0.1153160699E-02      0.2209670458E-01
          0                 5           1            32   32     2       0.2510476031E-04      32   32    2         0.1048681963E-02      0.1643901659E-01
          0                 6           1            31   31     2       0.1605153467E-04      30   30    2         0.8531308774E-03      0.1339516953E-01
          0                 7           1            31   31     2       0.1858174015E-04      33   31    2         0.7299275205E-03      0.1151813636E-01
          0                 8           1            30   31     1       0.1154894294E-04      30   30    2         0.5746330150E-03      0.1022422423E-01
          0                 9           1            31   31     2       0.1259951594E-04      33   31    2         0.5046439309E-03      0.9117333740E-02
          0                10           1            30   32     2       0.9018855431E-05      30   30    2         0.4187548827E-03      0.8277557991E-02

    ------------------------------------------------
       NWT REQUIRED           10 OUTER ITERATIONS 
       AND A TOTAL OF         10 INNER ITERATIONS.
    ------------------------------------------------

 OUTPUT CONTROL FOR STRESS PERIOD    1   TIME STEP  378
    SAVE HEAD FOR ALL LAYERS
 SOLVING FOR ZETA FOR LAYER     1 ZONE     2

     600 UPPER PART EQS.       606 LOWER PART EQS.    BAND WIDTH + 1 =   27
 STRESS PERIOD=  1 TIMESTEP=378 LAYER=  1 ZONE=  2 ACTIVE CELLS= 1206 NUMBER OF EQUATIONS=    1206
 SOLVING FOR ZETA FOR LAYER     2 ZONE     2

     541 UPPER PART EQS.       548 LOWER PART EQS.    BAND WIDTH + 1 =   34
 STRESS PERIOD=  1 TIMESTEP=378 LAYER=  2 ZONE=  2 ACTIVE CELLS= 1089 NUMBER OF EQUATIONS=    1089
 UBUDSV SAVING "      ZETASRF  1" ON UNIT 55 AT TIME STEP378, STRESS PERIOD    1

 HEAD WILL BE SAVED ON UNIT   51 AT END OF TIME STEP  378, STRESS PERIOD    1
 
 SOLVING FOR HEAD 
                                                   Max.-Head-Change                         Max.-Flux-Residual
  Residual-Control   Outer-Iter.   Inner-Iter.     Column Row Layer    Maximum-Head-Change  Column Row Layer    Maximum-Flux-Residual          L2-NORM 
          0                 1           1            31   54     1       0.6295143091E-03      54   27    1        -0.5095370271E+00      0.4881923487E+01
          0                 2           1            30   50     2      -0.3641335767E-04      28   53    1        -0.9908493426E-02      0.1014911243E+00
          0                 3           1            23   22     1       0.2419272474E-04      29   51    2        -0.1453883256E-02      0.2787219812E-01
          0                 4           1            34   27     1       0.1663740616E-04      41   23    2         0.9583901942E-03      0.1838998555E-01
          0                 5           1            31   31     2       0.2133499358E-04      31   29    2         0.8085684813E-03      0.1559364871E-01
          0                 6           1            31   31     2       0.1486087396E-04      33   31    2         0.7144220123E-03      0.1399726390E-01
          0                 7           1            31   31     2       0.1645074640E-04      32   32    2         0.6414591555E-03      0.1254174538E-01
          0                 8           1            31   31     2       0.1168805275E-04      42   26    2         0.5533871771E-03      0.1139032941E-01
          0                 9           1            32   31     1       0.1250404617E-04      32   32    2         0.5002472776E-03      0.1021472562E-01
          0                10           1            29   32     1       0.9311773412E-05      42   26    2         0.4664272283E-03      0.9283001902E-02

    ------------------------------------------------
       NWT REQUIRED           10 OUTER ITERATIONS 
       AND A TOTAL OF         10 INNER ITERATIONS.
    ------------------------------------------------

 OUTPUT CONTROL FOR STRESS PERIOD    1   TIME STEP  379
    SAVE HEAD FOR ALL LAYERS
 SOLVING FOR ZETA FOR LAYER     1 ZONE     2

     606 UPPER PART EQS.       586 LOWER PART EQS.    BAND WIDTH + 1 =   39
 STRESS PERIOD=  1 TIMESTEP=379 LAYER=  1 ZONE=  2 ACTIVE CELLS= 1192 NUMBER OF EQUATIONS=    1192
 SOLVING FOR ZETA FOR LAYER     2 ZONE     2

     541 UPPER PART EQS.       548 LOWER PART EQS.    BAND WIDTH + 1 =   34
 STRESS PERIOD=  1 TIMESTEP=379 LAYER=  2 ZONE=  2 ACTIVE CELLS= 1089 NUMBER OF EQUATIONS=    1089
 UBUDSV SAVING "      ZETASRF  1" ON UNIT 55 AT TIME STEP379, STRESS PERIOD    1

 HEAD WILL BE SAVED ON UNIT   51 AT END OF TIME STEP  379, STRESS PERIOD    1
 
 SOLVING FOR HEAD 
                                                   Max.-Head-Change                         Max.-Flux-Residual
  Residual-Control   Outer-Iter.   Inner-Iter.     Column Row Layer    Maximum-Head-Change  Column Row Layer    Maximum-Flux-Residual          L2-NORM 
          0                 1           1             8   31     1      -0.6867144095E-03      54   34    1        -0.5157479869E+00      0.4868931801E+01
          0                 2           1            22   50     2      -0.5006619513E-04      36   53    1        -0.1050633359E-01      0.1096936729E+00
          0                 3           1            33   22     1       0.2379782522E-04      36   52    2        -0.1996521393E-02      0.3335379531E-01
          0                 4           1            32   27     1       0.1642271103E-04      36   53    1        -0.9237193873E-03      0.1830841579E-01
          0                 5           1            31   31     2       0.1884023946E-04      31   29    2         0.8271854841E-03      0.1276497459E-01
          0                 6           1            31   31     2       0.1237200706E-04      30   30    2         0.6610609240E-03      0.9860421466E-02
          0                 7           1            31   31     2       0.1292706271E-04      30   30    2         0.5461639721E-03      0.8183293926E-02
          0                 8           1            31   31     2       0.8972070264E-05      32   32    2         0.4307622532E-03      0.7123788285E-02

    ------------------------------------------------
       NWT REQUIRED            8 OUTER ITERATIONS 
       AND A TOTAL OF          8 INNER ITERATIONS.
    ------------------------------------------------

 OUTPUT CONTROL FOR STRESS PERIOD    1   TIME STEP  380
    SAVE HEAD FOR ALL LAYERS
 SOLVING FOR ZETA FOR LAYER     1 ZONE     2

     598 UPPER PART EQS.       602 LOWER PART EQS.    BAND WIDTH + 1 =   25
 STRESS PERIOD=  1 TIMESTEP=380 LAYER=  1 ZONE=  2 ACTIVE CELLS= 1200 NUMBER OF EQUATIONS=    1200
 SOLVING FOR ZETA FOR LAYER     2 ZONE     2

     541 UPPER PART EQS.       548 LOWER PART EQS.    BAND WIDTH + 1 =   34
 STRESS PERIOD=  1 TIMESTEP=380 LAYER=  2 ZONE=  2 ACTIVE CELLS= 1089 NUMBER OF EQUATIONS=    1089
 UBUDSV SAVING "      ZETASRF  1" ON UNIT 55 AT TIME STEP380, STRESS PERIOD    1

 HEAD WILL BE SAVED ON UNIT   51 AT END OF TIME STEP  380, STRESS PERIOD    1
 
 SOLVING FOR HEAD 
                                                   Max.-Head-Change                         Max.-Flux-Residual
  Residual-Control   Outer-Iter.   Inner-Iter.     Column Row Layer    Maximum-Head-Change  Column Row Layer    Maximum-Flux-Residual          L2-NORM 
          0                 1           1            31   54     1       0.6364768200E-03      54   27    1        -0.5127053767E+00      0.4971713446E+01
          0                 2           1            32   50     2      -0.3871829485E-04      28   53    1        -0.9912010576E-02      0.1032308927E+00
          0                 3           1            41   40     1       0.2470627288E-04      45   40    1         0.1615900937E-02      0.2915917006E-01
          0                 4           1            35   28     1       0.1730116062E-04      41   23    2         0.9951727885E-03      0.1909072346E-01
          0                 5           1            31   31     2       0.2204598528E-04      31   29    2         0.8446049266E-03      0.1615547828E-01
          0                 6           1            30   31     1       0.1580646493E-04      30   30    2         0.7423679446E-03      0.1449892942E-01
          0                 7           1            31   31     2       0.1681267980E-04      32   32    2         0.6703065978E-03      0.1298913728E-01
          0                 8           1            30   31     1       0.1250499615E-04      43   29    2         0.5953844123E-03      0.1178893682E-01
          0                 9           1            32   31     1       0.1265040618E-04      32   32    2         0.5227305392E-03      0.1057961768E-01
          0                10           1            29   32     1       0.1002181231E-04      42   26    2         0.5081602307E-03      0.9604449454E-02
          0                11           1            32   31     1       0.9983585745E-05      39   29    2         0.4376683099E-03      0.8636225605E-02

    ------------------------------------------------
       NWT REQUIRED           11 OUTER ITERATIONS 
       AND A TOTAL OF         11 INNER ITERATIONS.
    ------------------------------------------------

 OUTPUT CONTROL FOR STRESS PERIOD    1   TIME STEP  381
    SAVE HEAD FOR ALL LAYERS
 SOLVING FOR ZETA FOR LAYER     1 ZONE     2

     606 UPPER PART EQS.       598 LOWER PART EQS.    BAND WIDTH + 1 =   28
 STRESS PERIOD=  1 TIMESTEP=381 LAYER=  1 ZONE=  2 ACTIVE CELLS= 1204 NUMBER OF EQUATIONS=    1204
 SOLVING FOR ZETA FOR LAYER     2 ZONE     2

     541 UPPER PART EQS.       548 LOWER PART EQS.    BAND WIDTH + 1 =   34
 STRESS PERIOD=  1 TIMESTEP=381 LAYER=  2 ZONE=  2 ACTIVE CELLS= 1089 NUMBER OF EQUATIONS=    1089
 UBUDSV SAVING "      ZETASRF  1" ON UNIT 55 AT TIME STEP381, STRESS PERIOD    1

 HEAD WILL BE SAVED ON UNIT   51 AT END OF TIME STEP  381, STRESS PERIOD    1
 
 SOLVING FOR HEAD 
                                                   Max.-Head-Change                         Max.-Flux-Residual
  Residual-Control   Outer-Iter.   Inner-Iter.     Column Row Layer    Maximum-Head-Change  Column Row Layer    Maximum-Flux-Residual          L2-NORM 
          0                 1           1             8   31     1      -0.6938147612E-03      54   34    1        -0.5190980635E+00      0.4851697372E+01
          0                 2           1            39   49     2      -0.4992957584E-04      36   53    1        -0.1072747130E-01      0.1110640193E+00
          0                 3           1            32   21     1       0.2669282411E-04      36   52    2        -0.2117860253E-02      0.3502515678E-01
          0                 4           1            33   28     1       0.1784615905E-04      32   24    2         0.9915381439E-03      0.1950066053E-01
          0                 5           1            32   32     2       0.2107636587E-04      33   31    2         0.9056482418E-03      0.1396116874E-01
          0                 6           1            31   31     2       0.1363366700E-04      32   32    2         0.7237540335E-03      0.1104342372E-01
          0                 7           1            31   31     2       0.1514253341E-04      33   31    2         0.6120245357E-03      0.9305822355E-02
          0                 8           1            31   31     2       0.9634791287E-05      32   32    2         0.4772775293E-03      0.8184499926E-02

    ------------------------------------------------
       NWT REQUIRED            8 OUTER ITERATIONS 
       AND A TOTAL OF          8 INNER ITERATIONS.
    ------------------------------------------------

 OUTPUT CONTROL FOR STRESS PERIOD    1   TIME STEP  382
    SAVE HEAD FOR ALL LAYERS
 SOLVING FOR ZETA FOR LAYER     1 ZONE     2

     598 UPPER PART EQS.       594 LOWER PART EQS.    BAND WIDTH + 1 =   27
 STRESS PERIOD=  1 TIMESTEP=382 LAYER=  1 ZONE=  2 ACTIVE CELLS= 1192 NUMBER OF EQUATIONS=    1192
 SOLVING FOR ZETA FOR LAYER     2 ZONE     2

     541 UPPER PART EQS.       548 LOWER PART EQS.    BAND WIDTH + 1 =   34
 STRESS PERIOD=  1 TIMESTEP=382 LAYER=  2 ZONE=  2 ACTIVE CELLS= 1089 NUMBER OF EQUATIONS=    1089
 UBUDSV SAVING "      ZETASRF  1" ON UNIT 55 AT TIME STEP382, STRESS PERIOD    1

 HEAD WILL BE SAVED ON UNIT   51 AT END OF TIME STEP  382, STRESS PERIOD    1
 
 SOLVING FOR HEAD 
                                                   Max.-Head-Change                         Max.-Flux-Residual
  Residual-Control   Outer-Iter.   Inner-Iter.     Column Row Layer    Maximum-Head-Change  Column Row Layer    Maximum-Flux-Residual          L2-NORM 
          0                 1           1            54   31     1       0.6431263322E-03      54   27    1        -0.5160161737E+00      0.4985170286E+01
          0                 2           1            30   50     2      -0.3563336941E-04      28   53    1        -0.1017253347E-01      0.1038488394E+00
          0                 3           1            24   21     1       0.2569046791E-04      24   21    1         0.1480547252E-02      0.2665576748E-01
          0                 4           1            27   37     2       0.1521260520E-04      44   20    2         0.8657950187E-03      0.1711939936E-01
          0                 5           1            30   32     2       0.1956901335E-04      30   34    2         0.7375117858E-03      0.1433043681E-01
          0                 6           1            30   31     1       0.1363940829E-04      30   30    2         0.6579938275E-03      0.1286186438E-01
          0                 7           1            30   32     2       0.1502063257E-04      30   30    2         0.5847720906E-03      0.1150790696E-01
          0                 8           1            29   32     1       0.1085020026E-04      42   26    2         0.5132197965E-03      0.1046926104E-01
          0                 9           1            30   32     2       0.1132561937E-04      31   33    2         0.4554385847E-03      0.9378679693E-02
          0                10           1            29   32     1       0.8713077264E-05      42   26    2         0.4343355428E-03      0.8534230694E-02

    ------------------------------------------------
       NWT REQUIRED           10 OUTER ITERATIONS 
       AND A TOTAL OF         10 INNER ITERATIONS.
    ------------------------------------------------

 OUTPUT CONTROL FOR STRESS PERIOD    1   TIME STEP  383
    SAVE HEAD FOR ALL LAYERS
 SOLVING FOR ZETA FOR LAYER     1 ZONE     2

     606 UPPER PART EQS.       594 LOWER PART EQS.    BAND WIDTH + 1 =   31
 STRESS PERIOD=  1 TIMESTEP=383 LAYER=  1 ZONE=  2 ACTIVE CELLS= 1200 NUMBER OF EQUATIONS=    1200
 SOLVING FOR ZETA FOR LAYER     2 ZONE     2

     541 UPPER PART EQS.       548 LOWER PART EQS.    BAND WIDTH + 1 =   34
 STRESS PERIOD=  1 TIMESTEP=383 LAYER=  2 ZONE=  2 ACTIVE CELLS= 1089 NUMBER OF EQUATIONS=    1089
 UBUDSV SAVING "      ZETASRF  1" ON UNIT 55 AT TIME STEP383, STRESS PERIOD    1

 HEAD WILL BE SAVED ON UNIT   51 AT END OF TIME STEP  383, STRESS PERIOD    1
 
 SOLVING FOR HEAD 
                                                   Max.-Head-Change                         Max.-Flux-Residual
  Residual-Control   Outer-Iter.   Inner-Iter.     Column Row Layer    Maximum-Head-Change  Column Row Layer    Maximum-Flux-Residual          L2-NORM 
          0                 1           1             8   31     1      -0.7004775797E-03      54   34    1        -0.5223682501E+00      0.4908225414E+01
          0                 2           1            39   49     2      -0.5035501339E-04      36   53    1        -0.1097470366E-01      0.1144019874E+00
          0                 3           1            41   32     1       0.2911387327E-04      36   52    2        -0.2159371577E-02      0.3601156005E-01
          0                 4           1            35   31     2       0.1881815688E-04      37   31    2         0.1057380979E-02      0.2028899099E-01
          0                 5           1            32   32     2       0.2250813308E-04      33   31    2         0.9575722731E-03      0.1481829542E-01
          0                 6           1            31   31     2       0.1440034136E-04      30   30    2         0.7677339220E-03      0.1186523217E-01
          0                 7           1            31   31     2       0.1650810209E-04      33   31    2         0.6554720543E-03      0.1008913628E-01
          0                 8           1            31   31     2       0.1018079706E-04      30   30    2         0.5101365703E-03      0.8911443793E-02
          0                 9           1            32   32     2       0.1122911509E-04      33   31    2         0.4467919887E-03      0.7907761317E-02
          0                10           1            31   31     2       0.7851758020E-05      30   30    2         0.3671722554E-03      0.7198497423E-02

    ------------------------------------------------
       NWT REQUIRED           10 OUTER ITERATIONS 
       AND A TOTAL OF         10 INNER ITERATIONS.
    ------------------------------------------------

 OUTPUT CONTROL FOR STRESS PERIOD    1   TIME STEP  384
    SAVE HEAD FOR ALL LAYERS
 SOLVING FOR ZETA FOR LAYER     1 ZONE     2

     600 UPPER PART EQS.       606 LOWER PART EQS.    BAND WIDTH + 1 =   27
 STRESS PERIOD=  1 TIMESTEP=384 LAYER=  1 ZONE=  2 ACTIVE CELLS= 1206 NUMBER OF EQUATIONS=    1206
 SOLVING FOR ZETA FOR LAYER     2 ZONE     2

     541 UPPER PART EQS.       548 LOWER PART EQS.    BAND WIDTH + 1 =   34
 STRESS PERIOD=  1 TIMESTEP=384 LAYER=  2 ZONE=  2 ACTIVE CELLS= 1089 NUMBER OF EQUATIONS=    1089
 UBUDSV SAVING "      ZETASRF  1" ON UNIT 55 AT TIME STEP384, STRESS PERIOD    1

 HEAD WILL BE SAVED ON UNIT   51 AT END OF TIME STEP  384, STRESS PERIOD    1
 
 SOLVING FOR HEAD 
                                                   Max.-Head-Change                         Max.-Flux-Residual
  Residual-Control   Outer-Iter.   Inner-Iter.     Column Row Layer    Maximum-Head-Change  Column Row Layer    Maximum-Flux-Residual          L2-NORM 
          0                 1           1            31   54     1       0.6498838727E-03      54   27    1        -0.5192041979E+00      0.4976816013E+01
          0                 2           1            32   50     2      -0.3432661457E-04      28   53    1        -0.1009125914E-01      0.1012732498E+00
          0                 3           1            41   40     1       0.2243239528E-04      45   23    2         0.1426122523E-02      0.2613477813E-01
          0                 4           1            35   28     1       0.1514976117E-04      41   23    2         0.9151138581E-03      0.1678907066E-01
          0                 5           1            32   32     2       0.1861136232E-04      32   28    2         0.7237330359E-03      0.1417529604E-01
          0                 6           1            32   32     2       0.1391755939E-04      33   31    2         0.6473035422E-03      0.1272309511E-01
          0                 7           1            32   32     2       0.1430999939E-04      32   32    2         0.5808439317E-03      0.1142863471E-01
          0                 8           1            32   32     2       0.1111263661E-04      17   35    2         0.5184112156E-03      0.1036251190E-01
          0                 9           1            32   31     1       0.1087639033E-04      17   35    2         0.4836010546E-03      0.9323476392E-02
          0                10           1            30   31     1       0.8886492674E-05      17   35    2         0.4307494739E-03      0.8450988746E-02

    ------------------------------------------------
       NWT REQUIRED           10 OUTER ITERATIONS 
       AND A TOTAL OF         10 INNER ITERATIONS.
    ------------------------------------------------

 OUTPUT CONTROL FOR STRESS PERIOD    1   TIME STEP  385
    SAVE HEAD FOR ALL LAYERS
 SOLVING FOR ZETA FOR LAYER     1 ZONE     2

     604 UPPER PART EQS.       586 LOWER PART EQS.    BAND WIDTH + 1 =   37
 STRESS PERIOD=  1 TIMESTEP=385 LAYER=  1 ZONE=  2 ACTIVE CELLS= 1190 NUMBER OF EQUATIONS=    1190
 SOLVING FOR ZETA FOR LAYER     2 ZONE     2

     541 UPPER PART EQS.       548 LOWER PART EQS.    BAND WIDTH + 1 =   34
 STRESS PERIOD=  1 TIMESTEP=385 LAYER=  2 ZONE=  2 ACTIVE CELLS= 1089 NUMBER OF EQUATIONS=    1089
 UBUDSV SAVING "      ZETASRF  1" ON UNIT 55 AT TIME STEP385, STRESS PERIOD    1

 HEAD WILL BE SAVED ON UNIT   51 AT END OF TIME STEP  385, STRESS PERIOD    1
 
 SOLVING FOR HEAD 
                                                   Max.-Head-Change                         Max.-Flux-Residual
  Residual-Control   Outer-Iter.   Inner-Iter.     Column Row Layer    Maximum-Head-Change  Column Row Layer    Maximum-Flux-Residual          L2-NORM 
          0                 1           1             8   31     1      -0.7047848187E-03      54   34    1        -0.5257800374E+00      0.4979826478E+01
          0                 2           1            39   49     2      -0.4870948077E-04      36   53    1        -0.1081615179E-01      0.1094475711E+00
          0                 3           1            21   51     2      -0.2343610969E-04      36   52    2        -0.1979236836E-02      0.3235012560E-01
          0                 4           1            32   27     1       0.1533889678E-04      36   53    1        -0.8953200021E-03      0.1740403390E-01
          0                 5           1            31   31     2       0.1713380085E-04      31   29    2         0.7664424822E-03      0.1189626626E-01
          0                 6           1            31   31     2       0.1135737761E-04      30   30    2         0.6079865141E-03      0.8960821119E-02
          0                 7           1            31   31     2       0.1156691177E-04      32   32    2         0.4983611722E-03      0.7291449002E-02
          0                 8           1            31   31     2       0.8095214891E-05      32   32    2         0.3913338436E-03      0.6249814668E-02

    ------------------------------------------------
       NWT REQUIRED            8 OUTER ITERATIONS 
       AND A TOTAL OF          8 INNER ITERATIONS.
    ------------------------------------------------

 OUTPUT CONTROL FOR STRESS PERIOD    1   TIME STEP  386
    SAVE HEAD FOR ALL LAYERS
 SOLVING FOR ZETA FOR LAYER     1 ZONE     2

     598 UPPER PART EQS.       600 LOWER PART EQS.    BAND WIDTH + 1 =   23
 STRESS PERIOD=  1 TIMESTEP=386 LAYER=  1 ZONE=  2 ACTIVE CELLS= 1198 NUMBER OF EQUATIONS=    1198
 SOLVING FOR ZETA FOR LAYER     2 ZONE     2

     541 UPPER PART EQS.       548 LOWER PART EQS.    BAND WIDTH + 1 =   34
 STRESS PERIOD=  1 TIMESTEP=386 LAYER=  2 ZONE=  2 ACTIVE CELLS= 1089 NUMBER OF EQUATIONS=    1089
 UBUDSV SAVING "      ZETASRF  1" ON UNIT 55 AT TIME STEP386, STRESS PERIOD    1

 HEAD WILL BE SAVED ON UNIT   51 AT END OF TIME STEP  386, STRESS PERIOD    1
 
 SOLVING FOR HEAD 
                                                   Max.-Head-Change                         Max.-Flux-Residual
  Residual-Control   Outer-Iter.   Inner-Iter.     Column Row Layer    Maximum-Head-Change  Column Row Layer    Maximum-Flux-Residual          L2-NORM 
          0                 1           1            31   54     1       0.6551163392E-03      54   27    1        -0.5223148039E+00      0.5069549736E+01
          0                 2           1            30   50     2      -0.3952184932E-04      28   53    1        -0.1056123577E-01      0.1057810324E+00
          0                 3           1            23   22     1       0.2807860785E-04      29   51    2        -0.1606755779E-02      0.2949679102E-01
          0                 4           1            27   26     1       0.1758540981E-04      22   38    2         0.9792205831E-03      0.1913167548E-01
          0                 5           1            30   32     2       0.2155370680E-04      31   33    2         0.8264584567E-03      0.1620834252E-01
          0                 6           1            29   32     1       0.1592922192E-04      29   31    2         0.7453014999E-03      0.1455179453E-01
          0                 7           1            30   31     1       0.1652811064E-04      30   30    2         0.6644157334E-03      0.1304785493E-01
          0                 8           1            29   32     1       0.1279554658E-04      29   31    2         0.5815672127E-03      0.1183739841E-01
          0                 9           1            31   31     2       0.1243453090E-04      32   32    2         0.5213987361E-03      0.1063075362E-01
          0                10           1            29   32     1       0.1032428632E-04      42   26    2         0.4823340872E-03      0.9644463962E-02
          0                11           1            31   30     1       0.9791925547E-05      39   29    2         0.4267602247E-03      0.8681388009E-02

    ------------------------------------------------
       NWT REQUIRED           11 OUTER ITERATIONS 
       AND A TOTAL OF         11 INNER ITERATIONS.
    ------------------------------------------------

 OUTPUT CONTROL FOR STRESS PERIOD    1   TIME STEP  387
    SAVE HEAD FOR ALL LAYERS
 SOLVING FOR ZETA FOR LAYER     1 ZONE     2

     608 UPPER PART EQS.       596 LOWER PART EQS.    BAND WIDTH + 1 =   32
 STRESS PERIOD=  1 TIMESTEP=387 LAYER=  1 ZONE=  2 ACTIVE CELLS= 1204 NUMBER OF EQUATIONS=    1204
 SOLVING FOR ZETA FOR LAYER     2 ZONE     2

     541 UPPER PART EQS.       548 LOWER PART EQS.    BAND WIDTH + 1 =   34
 STRESS PERIOD=  1 TIMESTEP=387 LAYER=  2 ZONE=  2 ACTIVE CELLS= 1089 NUMBER OF EQUATIONS=    1089
 UBUDSV SAVING "      ZETASRF  1" ON UNIT 55 AT TIME STEP387, STRESS PERIOD    1

 HEAD WILL BE SAVED ON UNIT   51 AT END OF TIME STEP  387, STRESS PERIOD    1
 
 SOLVING FOR HEAD 
                                                   Max.-Head-Change                         Max.-Flux-Residual
  Residual-Control   Outer-Iter.   Inner-Iter.     Column Row Layer    Maximum-Head-Change  Column Row Layer    Maximum-Flux-Residual          L2-NORM 
          0                 1           1            32    8     1      -0.7099864061E-03      54   34    1        -0.5290686959E+00      0.5054917404E+01
          0                 2           1            39   49     2      -0.5010904885E-04      36   53    1        -0.1115778883E-01      0.1103270981E+00
          0                 3           1            37   51     2      -0.2257727974E-04      36   52    2        -0.2024071791E-02      0.3023724035E-01
          0                 4           1            32   27     1       0.1373111009E-04      32   25    1         0.7727636742E-03      0.1577322707E-01
          0                 5           1            32   32     2       0.1407927685E-04      33   31    2         0.6433405633E-03      0.1026875957E-01
          0                 6           1            32   32     2       0.9025892805E-05      33   31    2         0.5053588493E-03      0.7292037144E-02

    ------------------------------------------------
       NWT REQUIRED            6 OUTER ITERATIONS 
       AND A TOTAL OF          6 INNER ITERATIONS.
    ------------------------------------------------

 OUTPUT CONTROL FOR STRESS PERIOD    1   TIME STEP  388
    SAVE HEAD FOR ALL LAYERS
 SOLVING FOR ZETA FOR LAYER     1 ZONE     2

     590 UPPER PART EQS.       590 LOWER PART EQS.    BAND WIDTH + 1 =   23
 STRESS PERIOD=  1 TIMESTEP=388 LAYER=  1 ZONE=  2 ACTIVE CELLS= 1180 NUMBER OF EQUATIONS=    1180
 SOLVING FOR ZETA FOR LAYER     2 ZONE     2

     541 UPPER PART EQS.       548 LOWER PART EQS.    BAND WIDTH + 1 =   34
 STRESS PERIOD=  1 TIMESTEP=388 LAYER=  2 ZONE=  2 ACTIVE CELLS= 1089 NUMBER OF EQUATIONS=    1089
 UBUDSV SAVING "      ZETASRF  1" ON UNIT 55 AT TIME STEP388, STRESS PERIOD    1

 HEAD WILL BE SAVED ON UNIT   51 AT END OF TIME STEP  388, STRESS PERIOD    1
 
 SOLVING FOR HEAD 
                                                   Max.-Head-Change                         Max.-Flux-Residual
  Residual-Control   Outer-Iter.   Inner-Iter.     Column Row Layer    Maximum-Head-Change  Column Row Layer    Maximum-Flux-Residual          L2-NORM 
          0                 1           1            31   54     1       0.6615932715E-03      54   27    1        -0.5254244884E+00      0.5120707803E+01
          0                 2           1            32   50     2      -0.4083809190E-04      28   53    1        -0.1054445624E-01      0.1097642488E+00
          0                 3           1            41   38     1       0.3095167524E-04      45   23    2         0.1747413167E-02      0.3323597841E-01
          0                 4           1            36   36     2       0.1950567435E-04      41   23    2         0.1105511074E-02      0.2174460396E-01
          0                 5           1            32   32     2       0.2628688479E-04      32   32    2         0.9576937093E-03      0.1853855814E-01
          0                 6           1            30   31     1       0.1716333228E-04      43   29    2         0.8437121958E-03      0.1661945998E-01
          0                 7           1            32   32     2       0.2051157999E-04      32   32    2         0.7703017066E-03      0.1489494735E-01
          0                 8           1            30   31     1       0.1351208414E-04      43   29    2         0.7112026262E-03      0.1349702171E-01
          0                 9           1            32   32     2       0.1542502227E-04      33   31    2         0.6010771781E-03      0.1209180016E-01
          0                10           1            29   32     1       0.1086346926E-04      43   29    2         0.5963153154E-03      0.1096898412E-01
                                                   Max.-Head-Change                         Max.-Flux-Residual
  Residual-Control   Outer-Iter.   Inner-Iter.     Column Row Layer    Maximum-Head-Change  Column Row Layer    Maximum-Flux-Residual          L2-NORM 
          0                11           1            32   31     1       0.1208110826E-04      40   32    2         0.4876176198E-03      0.9845537802E-02
          0                12           1            29   32     1       0.8809720919E-05      43   29    2         0.4977592322E-03      0.8933570411E-02

    ------------------------------------------------
       NWT REQUIRED           12 OUTER ITERATIONS 
       AND A TOTAL OF         12 INNER ITERATIONS.
    ------------------------------------------------

 OUTPUT CONTROL FOR STRESS PERIOD    1   TIME STEP  389
    SAVE HEAD FOR ALL LAYERS
 SOLVING FOR ZETA FOR LAYER     1 ZONE     2

     612 UPPER PART EQS.       592 LOWER PART EQS.    BAND WIDTH + 1 =   39
 STRESS PERIOD=  1 TIMESTEP=389 LAYER=  1 ZONE=  2 ACTIVE CELLS= 1204 NUMBER OF EQUATIONS=    1204
 SOLVING FOR ZETA FOR LAYER     2 ZONE     2

     541 UPPER PART EQS.       548 LOWER PART EQS.    BAND WIDTH + 1 =   34
 STRESS PERIOD=  1 TIMESTEP=389 LAYER=  2 ZONE=  2 ACTIVE CELLS= 1089 NUMBER OF EQUATIONS=    1089
 UBUDSV SAVING "      ZETASRF  1" ON UNIT 55 AT TIME STEP389, STRESS PERIOD    1

 HEAD WILL BE SAVED ON UNIT   51 AT END OF TIME STEP  389, STRESS PERIOD    1
 
 SOLVING FOR HEAD 
                                                   Max.-Head-Change                         Max.-Flux-Residual
  Residual-Control   Outer-Iter.   Inner-Iter.     Column Row Layer    Maximum-Head-Change  Column Row Layer    Maximum-Flux-Residual          L2-NORM 
          0                 1           1             8   31     1      -0.7165756283E-03      54   34    1        -0.5323291866E+00      0.5032740134E+01
          0                 2           1            22   50     2      -0.5015956048E-04      36   53    1        -0.1070682901E-01      0.1082773977E+00
          0                 3           1            21   51     2      -0.2412865898E-04      36   52    2        -0.1755383317E-02      0.3062894662E-01
          0                 4           1            29   28     1       0.1445340598E-04      36   53    1        -0.8245733593E-03      0.1635665202E-01
          0                 5           1            31   31     2       0.1572304967E-04      30   30    2         0.7117022300E-03      0.1101691061E-01
          0                 6           1            30   31     1       0.1033951991E-04      30   30    2         0.5631570073E-03      0.8166242386E-02
          0                 7           1            30   31     1       0.1050922956E-04      30   30    2         0.4568599688E-03      0.6533969248E-02
          0                 8           1            30   31     1       0.7086627689E-05      30   30    2         0.3544625661E-03      0.5544480780E-02

    ------------------------------------------------
       NWT REQUIRED            8 OUTER ITERATIONS 
       AND A TOTAL OF          8 INNER ITERATIONS.
    ------------------------------------------------

 OUTPUT CONTROL FOR STRESS PERIOD    1   TIME STEP  390
    SAVE HEAD FOR ALL LAYERS
 SOLVING FOR ZETA FOR LAYER     1 ZONE     2

     594 UPPER PART EQS.       604 LOWER PART EQS.    BAND WIDTH + 1 =   31
 STRESS PERIOD=  1 TIMESTEP=390 LAYER=  1 ZONE=  2 ACTIVE CELLS= 1198 NUMBER OF EQUATIONS=    1198
 SOLVING FOR ZETA FOR LAYER     2 ZONE     2

     541 UPPER PART EQS.       548 LOWER PART EQS.    BAND WIDTH + 1 =   34
 STRESS PERIOD=  1 TIMESTEP=390 LAYER=  2 ZONE=  2 ACTIVE CELLS= 1089 NUMBER OF EQUATIONS=    1089
 UBUDSV SAVING "      ZETASRF  1" ON UNIT 55 AT TIME STEP390, STRESS PERIOD    1

 HEAD WILL BE SAVED ON UNIT   51 AT END OF TIME STEP  390, STRESS PERIOD    1
 
 SOLVING FOR HEAD 
                                                   Max.-Head-Change                         Max.-Flux-Residual
  Residual-Control   Outer-Iter.   Inner-Iter.     Column Row Layer    Maximum-Head-Change  Column Row Layer    Maximum-Flux-Residual          L2-NORM 
          0                 1           1            31   54     1       0.6694401609E-03      54   27    1        -0.5286382658E+00      0.5179869561E+01
          0                 2           1            32   50     2      -0.3965843415E-04      28   53    1        -0.1031807568E-01      0.1054632923E+00
          0                 3           1            39   41     2       0.2293729307E-04      41   44    1         0.1423986011E-02      0.2581315777E-01
          0                 4           1            35   26     1       0.1478382504E-04      41   23    2         0.9022597587E-03      0.1593009454E-01
          0                 5           1            33   30     1       0.1685171077E-04      33   27    2         0.6784798530E-03      0.1321766633E-01
          0                 6           1            33   31     2       0.1333184794E-04      34   30    2         0.6120392022E-03      0.1181085168E-01
          0                 7           1            32   32     2       0.1301286944E-04      32   32    2         0.5417741694E-03      0.1060390942E-01
          0                 8           1            33   31     2       0.1069454435E-04      42   26    2         0.4835693356E-03      0.9608829907E-02
          0                 9           1            32   31     1       0.9863650129E-05      39   29    2         0.4418466716E-03      0.8650078647E-02

    ------------------------------------------------
       NWT REQUIRED            9 OUTER ITERATIONS 
       AND A TOTAL OF          9 INNER ITERATIONS.
    ------------------------------------------------

 OUTPUT CONTROL FOR STRESS PERIOD    1   TIME STEP  391
    SAVE HEAD FOR ALL LAYERS
 SOLVING FOR ZETA FOR LAYER     1 ZONE     2

     600 UPPER PART EQS.       580 LOWER PART EQS.    BAND WIDTH + 1 =   39
 STRESS PERIOD=  1 TIMESTEP=391 LAYER=  1 ZONE=  2 ACTIVE CELLS= 1180 NUMBER OF EQUATIONS=    1180
 SOLVING FOR ZETA FOR LAYER     2 ZONE     2

     541 UPPER PART EQS.       548 LOWER PART EQS.    BAND WIDTH + 1 =   34
 STRESS PERIOD=  1 TIMESTEP=391 LAYER=  2 ZONE=  2 ACTIVE CELLS= 1089 NUMBER OF EQUATIONS=    1089
 UBUDSV SAVING "      ZETASRF  1" ON UNIT 55 AT TIME STEP391, STRESS PERIOD    1

 HEAD WILL BE SAVED ON UNIT   51 AT END OF TIME STEP  391, STRESS PERIOD    1
 
 SOLVING FOR HEAD 
                                                   Max.-Head-Change                         Max.-Flux-Residual
  Residual-Control   Outer-Iter.   Inner-Iter.     Column Row Layer    Maximum-Head-Change  Column Row Layer    Maximum-Flux-Residual          L2-NORM 
          0                 1           1            32    8     1      -0.7214606315E-03      34    8    1        -0.5352432286E+00      0.4950208347E+01
          0                 2           1            24   50     2      -0.5513700356E-04      36   53    1        -0.1108873785E-01      0.1152315766E+00
          0                 3           1            28   21     1       0.2690124291E-04      36   52    2        -0.2075285400E-02      0.3591504632E-01
          0                 4           1            31   26     1       0.1764510984E-04      36   53    1        -0.1012931482E-02      0.1981995780E-01
          0                 5           1            31   31     2       0.2046095605E-04      31   29    2         0.8952041020E-03      0.1411030450E-01
          0                 6           1            30   31     1       0.1400091294E-04      30   30    2         0.7321234111E-03      0.1113231201E-01
          0                 7           1            31   31     2       0.1473470935E-04      30   30    2         0.6127700143E-03      0.9365449576E-02
          0                 8           1            30   31     1       0.1004178687E-04      30   30    2         0.4865559113E-03      0.8241669532E-02
          0                 9           1            31   31     2       0.9930928380E-05      29   31    2         0.4125497986E-03      0.7310565398E-02

    ------------------------------------------------
       NWT REQUIRED            9 OUTER ITERATIONS 
       AND A TOTAL OF          9 INNER ITERATIONS.
    ------------------------------------------------

 OUTPUT CONTROL FOR STRESS PERIOD    1   TIME STEP  392
    SAVE HEAD FOR ALL LAYERS
 SOLVING FOR ZETA FOR LAYER     1 ZONE     2

     602 UPPER PART EQS.       602 LOWER PART EQS.    BAND WIDTH + 1 =   23
 STRESS PERIOD=  1 TIMESTEP=392 LAYER=  1 ZONE=  2 ACTIVE CELLS= 1204 NUMBER OF EQUATIONS=    1204
 SOLVING FOR ZETA FOR LAYER     2 ZONE     2

     541 UPPER PART EQS.       548 LOWER PART EQS.    BAND WIDTH + 1 =   34
 STRESS PERIOD=  1 TIMESTEP=392 LAYER=  2 ZONE=  2 ACTIVE CELLS= 1089 NUMBER OF EQUATIONS=    1089
 UBUDSV SAVING "      ZETASRF  1" ON UNIT 55 AT TIME STEP392, STRESS PERIOD    1

 HEAD WILL BE SAVED ON UNIT   51 AT END OF TIME STEP  392, STRESS PERIOD    1
 
 SOLVING FOR HEAD 
                                                   Max.-Head-Change                         Max.-Flux-Residual
  Residual-Control   Outer-Iter.   Inner-Iter.     Column Row Layer    Maximum-Head-Change  Column Row Layer    Maximum-Flux-Residual          L2-NORM 
          0                 1           1             8   27     1      -0.6898906002E-03      34    8    1         0.4898635487E+00      0.4988433545E+01
          0                 2           1            32   50     2      -0.3994300193E-04      28   53    1        -0.1066806890E-01      0.1032706464E+00
          0                 3           1            18   38     2       0.2563556168E-04      45   40    1         0.1803408462E-02      0.2824404273E-01
          0                 4           1            22   34     2       0.1854747814E-04      43   29    2         0.1091606993E-02      0.1991407472E-01
          0                 5           1            29   31     2       0.2027377639E-04      16   32    2         0.9487819059E-03      0.1710979990E-01
          0                 6           1            29   32     1       0.1542614648E-04      43   29    2         0.8022151824E-03      0.1535697226E-01
          0                 7           1            31   31     2       0.1721032489E-04      16   32    2         0.6810538578E-03      0.1369448776E-01
          0                 8           1            29   32     1       0.1221922002E-04      43   29    2         0.6478466236E-03      0.1242775197E-01
          0                 9           1            31   31     2       0.1369149736E-04      39   29    2         0.5476944398E-03      0.1110397206E-01
          0                10           1            29   32     1       0.9804838574E-05      43   29    2         0.5346484544E-03      0.1010412121E-01

    ------------------------------------------------
       NWT REQUIRED           10 OUTER ITERATIONS 
       AND A TOTAL OF         10 INNER ITERATIONS.
    ------------------------------------------------

 OUTPUT CONTROL FOR STRESS PERIOD    1   TIME STEP  393
    SAVE HEAD FOR ALL LAYERS
 SOLVING FOR ZETA FOR LAYER     1 ZONE     2

     602 UPPER PART EQS.       600 LOWER PART EQS.    BAND WIDTH + 1 =   26
 STRESS PERIOD=  1 TIMESTEP=393 LAYER=  1 ZONE=  2 ACTIVE CELLS= 1202 NUMBER OF EQUATIONS=    1202
 SOLVING FOR ZETA FOR LAYER     2 ZONE     2

     541 UPPER PART EQS.       550 LOWER PART EQS.    BAND WIDTH + 1 =   34
 STRESS PERIOD=  1 TIMESTEP=393 LAYER=  2 ZONE=  2 ACTIVE CELLS= 1091 NUMBER OF EQUATIONS=    1091
 UBUDSV SAVING "      ZETASRF  1" ON UNIT 55 AT TIME STEP393, STRESS PERIOD    1

 HEAD WILL BE SAVED ON UNIT   51 AT END OF TIME STEP  393, STRESS PERIOD    1
 
 SOLVING FOR HEAD 
                                                   Max.-Head-Change                         Max.-Flux-Residual
  Residual-Control   Outer-Iter.   Inner-Iter.     Column Row Layer    Maximum-Head-Change  Column Row Layer    Maximum-Flux-Residual          L2-NORM 
          0                 1           1            33    8     1      -0.7222839829E-03       8   34    1         0.4899474318E+00      0.5037434679E+01
          0                 2           1            50   38     2      -0.5955619144E-04      50   38    2        -0.1148315347E-01      0.1122497224E+00
          0                 3           1            14   38     2      -0.3083773702E-04      51   22    1        -0.2106809410E-02      0.3364266908E-01
          0                 4           1            31   26     1       0.1466534360E-04      50   38    2        -0.1095880984E-02      0.1835036267E-01
          0                 5           1            32   32     2       0.1557044559E-04      32   28    2         0.6765981534E-03      0.1157695867E-01
          0                 6           1            31   31     2       0.8141832346E-05      32   32    2         0.4888120675E-03      0.7864239822E-02

    ------------------------------------------------
       NWT REQUIRED            6 OUTER ITERATIONS 
       AND A TOTAL OF          6 INNER ITERATIONS.
    ------------------------------------------------

 OUTPUT CONTROL FOR STRESS PERIOD    1   TIME STEP  394
    SAVE HEAD FOR ALL LAYERS
 SOLVING FOR ZETA FOR LAYER     1 ZONE     2

     592 UPPER PART EQS.       588 LOWER PART EQS.    BAND WIDTH + 1 =   25
 STRESS PERIOD=  1 TIMESTEP=394 LAYER=  1 ZONE=  2 ACTIVE CELLS= 1180 NUMBER OF EQUATIONS=    1180
 SOLVING FOR ZETA FOR LAYER     2 ZONE     2

     541 UPPER PART EQS.       556 LOWER PART EQS.    BAND WIDTH + 1 =   34
 STRESS PERIOD=  1 TIMESTEP=394 LAYER=  2 ZONE=  2 ACTIVE CELLS= 1097 NUMBER OF EQUATIONS=    1097
 UBUDSV SAVING "      ZETASRF  1" ON UNIT 55 AT TIME STEP394, STRESS PERIOD    1

 HEAD WILL BE SAVED ON UNIT   51 AT END OF TIME STEP  394, STRESS PERIOD    1
 
 SOLVING FOR HEAD 
                                                   Max.-Head-Change                         Max.-Flux-Residual
  Residual-Control   Outer-Iter.   Inner-Iter.     Column Row Layer    Maximum-Head-Change  Column Row Layer    Maximum-Flux-Residual          L2-NORM 
          0                 1           1             8   28     1      -0.7014824162E-03      27    8    1         0.4831292968E+00      0.4916542357E+01
          0                 2           1            32   50     2      -0.5828499653E-04      28   53    1        -0.1108756842E-01      0.1104526539E+00
          0                 3           1            17   35     2       0.3516809764E-04      46   26    2         0.2221278267E-02      0.3693358014E-01
          0                 4           1            42   30     2       0.2166827335E-04      43   29    2         0.1487414781E-02      0.2452679522E-01
          0                 5           1            23   30     1       0.2562635043E-04      46   26    2         0.1138830103E-02      0.2030834073E-01
          0                 6           1            29   32     1       0.1721900441E-04      43   29    2         0.1044545762E-02      0.1783892152E-01
          0                 7           1            31   31     2       0.2147648118E-04      46   26    2         0.8275318015E-03      0.1577557645E-01
          0                 8           1            29   32     1       0.1344030570E-04      43   29    2         0.8373010583E-03      0.1423048789E-01
          0                 9           1            31   31     2       0.1713844432E-04      46   26    2         0.6519848962E-03      0.1268436384E-01
          0                10           1            29   32     1       0.1057645969E-04      43   29    2         0.7027876220E-03      0.1152010986E-01
                                                   Max.-Head-Change                         Max.-Flux-Residual
  Residual-Control   Outer-Iter.   Inner-Iter.     Column Row Layer    Maximum-Head-Change  Column Row Layer    Maximum-Flux-Residual          L2-NORM 
          0                11           1            32   31     1       0.1375177962E-04      46   26    2         0.5268489066E-03      0.1027369544E-01
          0                12           1            29   32     1       0.8453906445E-05      43   29    2         0.5937425083E-03      0.9350671571E-02

    ------------------------------------------------
       NWT REQUIRED           12 OUTER ITERATIONS 
       AND A TOTAL OF         12 INNER ITERATIONS.
    ------------------------------------------------

 OUTPUT CONTROL FOR STRESS PERIOD    1   TIME STEP  395
    SAVE HEAD FOR ALL LAYERS
 SOLVING FOR ZETA FOR LAYER     1 ZONE     2

     609 UPPER PART EQS.       594 LOWER PART EQS.    BAND WIDTH + 1 =   33
 STRESS PERIOD=  1 TIMESTEP=395 LAYER=  1 ZONE=  2 ACTIVE CELLS= 1203 NUMBER OF EQUATIONS=    1203
 SOLVING FOR ZETA FOR LAYER     2 ZONE     2

     541 UPPER PART EQS.       556 LOWER PART EQS.    BAND WIDTH + 1 =   34
 STRESS PERIOD=  1 TIMESTEP=395 LAYER=  2 ZONE=  2 ACTIVE CELLS= 1097 NUMBER OF EQUATIONS=    1097
 UBUDSV SAVING "      ZETASRF  1" ON UNIT 55 AT TIME STEP395, STRESS PERIOD    1

 HEAD WILL BE SAVED ON UNIT   51 AT END OF TIME STEP  395, STRESS PERIOD    1
 
 SOLVING FOR HEAD 
                                                   Max.-Head-Change                         Max.-Flux-Residual
  Residual-Control   Outer-Iter.   Inner-Iter.     Column Row Layer    Maximum-Head-Change  Column Row Layer    Maximum-Flux-Residual          L2-NORM 
          0                 1           1            31   54     1      -0.7186462604E-03      54   29    1         0.5825009957E+00      0.4807756522E+01
          0                 2           1            12   24     2      -0.5336359793E-04      36    9    1         0.9731410234E-02      0.1049311840E+00
          0                 3           1            13   25     2      -0.3617895748E-04      11   26    1        -0.2236933039E-02      0.3381491205E-01
          0                 4           1            31   26     1       0.1435468755E-04      15   30    1        -0.1142058996E-02      0.1868212287E-01
          0                 5           1            31   33     2       0.1563200906E-04      31   29    2         0.6675837798E-03      0.1185563026E-01
          0                 6           1            31   33     2       0.8097854907E-05      31   33    2         0.4781338333E-03      0.8122692588E-02

    ------------------------------------------------
       NWT REQUIRED            6 OUTER ITERATIONS 
       AND A TOTAL OF          6 INNER ITERATIONS.
    ------------------------------------------------

 OUTPUT CONTROL FOR STRESS PERIOD    1   TIME STEP  396
    SAVE HEAD FOR ALL LAYERS
 SOLVING FOR ZETA FOR LAYER     1 ZONE     2

     587 UPPER PART EQS.       610 LOWER PART EQS.    BAND WIDTH + 1 =   44
 STRESS PERIOD=  1 TIMESTEP=396 LAYER=  1 ZONE=  2 ACTIVE CELLS= 1197 NUMBER OF EQUATIONS=    1197
 SOLVING FOR ZETA FOR LAYER     2 ZONE     2

     541 UPPER PART EQS.       556 LOWER PART EQS.    BAND WIDTH + 1 =   34
 STRESS PERIOD=  1 TIMESTEP=396 LAYER=  2 ZONE=  2 ACTIVE CELLS= 1097 NUMBER OF EQUATIONS=    1097
 UBUDSV SAVING "      ZETASRF  1" ON UNIT 55 AT TIME STEP396, STRESS PERIOD    1

 HEAD WILL BE SAVED ON UNIT   51 AT END OF TIME STEP  396, STRESS PERIOD    1
 
 SOLVING FOR HEAD 
                                                   Max.-Head-Change                         Max.-Flux-Residual
  Residual-Control   Outer-Iter.   Inner-Iter.     Column Row Layer    Maximum-Head-Change  Column Row Layer    Maximum-Flux-Residual          L2-NORM 
          0                 1           1             8   29     1      -0.7324690270E-03      54   34    1         0.6394545513E+00      0.5074685457E+01
          0                 2           1            32   50     2      -0.5368929851E-04      36    9    1        -0.8677983408E-02      0.1018478700E+00
          0                 3           1            16   28     2       0.3605370759E-04      15   30    1         0.2212312303E-02      0.3260431445E-01
          0                 4           1            19   29     2       0.1963647409E-04      15   30    1         0.1396879355E-02      0.2130643017E-01
          0                 5           1            22   31     1       0.2091925084E-04      46   30    2         0.9663512453E-03      0.1705214414E-01
          0                 6           1            33   31     2       0.1358125986E-04      47   30    1         0.8497837621E-03      0.1475846634E-01
          0                 7           1            31   31     2       0.1759246978E-04      39   29    2         0.6616142601E-03      0.1294164897E-01
          0                 8           1            30   31     1       0.1057332321E-04      43   29    2         0.6531893362E-03      0.1165679735E-01
          0                 9           1            31   31     2       0.1437270508E-04      39   29    2         0.5203117115E-03      0.1034524430E-01
          0                10           1            29   32     1       0.8361837371E-05      43   29    2         0.5350934480E-03      0.9416427996E-02

    ------------------------------------------------
       NWT REQUIRED           10 OUTER ITERATIONS 
       AND A TOTAL OF         10 INNER ITERATIONS.
    ------------------------------------------------

 OUTPUT CONTROL FOR STRESS PERIOD    1   TIME STEP  397
    SAVE HEAD FOR ALL LAYERS
 SOLVING FOR ZETA FOR LAYER     1 ZONE     2

     597 UPPER PART EQS.       584 LOWER PART EQS.    BAND WIDTH + 1 =   33
 STRESS PERIOD=  1 TIMESTEP=397 LAYER=  1 ZONE=  2 ACTIVE CELLS= 1181 NUMBER OF EQUATIONS=    1181
 SOLVING FOR ZETA FOR LAYER     2 ZONE     2

     541 UPPER PART EQS.       556 LOWER PART EQS.    BAND WIDTH + 1 =   34
 STRESS PERIOD=  1 TIMESTEP=397 LAYER=  2 ZONE=  2 ACTIVE CELLS= 1097 NUMBER OF EQUATIONS=    1097
 UBUDSV SAVING "      ZETASRF  1" ON UNIT 55 AT TIME STEP397, STRESS PERIOD    1

 HEAD WILL BE SAVED ON UNIT   51 AT END OF TIME STEP  397, STRESS PERIOD    1
 
 SOLVING FOR HEAD 
                                                   Max.-Head-Change                         Max.-Flux-Residual
  Residual-Control   Outer-Iter.   Inner-Iter.     Column Row Layer    Maximum-Head-Change  Column Row Layer    Maximum-Flux-Residual          L2-NORM 
          0                 1           1            31    8     1      -0.6910340531E-03      27   54    1         0.6272350262E+00      0.4779914080E+01
          0                 2           1            11   25     2      -0.6759714836E-04      11   25    2        -0.8404744229E-02      0.1054592038E+00
          0                 3           1            13   27     2      -0.3799568716E-04      11   30    1        -0.2731332178E-02      0.3673080452E-01
          0                 4           1            31   26     1       0.1662621801E-04      15   30    1        -0.1352565101E-02      0.2004519369E-01
          0                 5           1            32   32     2       0.1977775922E-04      32   32    2         0.8337804327E-03      0.1334009156E-01
          0                 6           1            32   32     2       0.1090717441E-04      32   32    2         0.6290516217E-03      0.9794895261E-02
          0                 7           1            32   32     2       0.1332680471E-04      32   32    2         0.5267433361E-03      0.7731376610E-02
          0                 8           1            32   32     2       0.7351231721E-05      32   32    2         0.3948724576E-03      0.6529146521E-02

    ------------------------------------------------
       NWT REQUIRED            8 OUTER ITERATIONS 
       AND A TOTAL OF          8 INNER ITERATIONS.
    ------------------------------------------------

 OUTPUT CONTROL FOR STRESS PERIOD    1   TIME STEP  398
    SAVE HEAD FOR ALL LAYERS
 SOLVING FOR ZETA FOR LAYER     1 ZONE     2

     604 UPPER PART EQS.       602 LOWER PART EQS.    BAND WIDTH + 1 =   27
 STRESS PERIOD=  1 TIMESTEP=398 LAYER=  1 ZONE=  2 ACTIVE CELLS= 1206 NUMBER OF EQUATIONS=    1206
 SOLVING FOR ZETA FOR LAYER     2 ZONE     2

     537 UPPER PART EQS.       556 LOWER PART EQS.    BAND WIDTH + 1 =   34
 STRESS PERIOD=  1 TIMESTEP=398 LAYER=  2 ZONE=  2 ACTIVE CELLS= 1093 NUMBER OF EQUATIONS=    1093
 UBUDSV SAVING "      ZETASRF  1" ON UNIT 55 AT TIME STEP398, STRESS PERIOD    1

 HEAD WILL BE SAVED ON UNIT   51 AT END OF TIME STEP  398, STRESS PERIOD    1
 
 SOLVING FOR HEAD 
                                                   Max.-Head-Change                         Max.-Flux-Residual
  Residual-Control   Outer-Iter.   Inner-Iter.     Column Row Layer    Maximum-Head-Change  Column Row Layer    Maximum-Flux-Residual          L2-NORM 
          0                 1           1             8   26     1      -0.6669631652E-03       8   33    1         0.5874321943E+00      0.4819332445E+01
          0                 2           1            13   24     1       0.3157270880E-04      28    9    1         0.7708442073E-02      0.8448006837E-01
          0                 3           1            16   25     1       0.2987763255E-04      15   25    2         0.1675836629E-02      0.2597347760E-01
          0                 4           1            22   28     2       0.1775585761E-04      15   30    1         0.1111225038E-02      0.1942524170E-01
          0                 5           1            26   30     2       0.2189005578E-04      23   29    2         0.8160075894E-03      0.1679520198E-01
          0                 6           1            28   31     1       0.1458047917E-04      29   31    2         0.7233474095E-03      0.1511721053E-01
          0                 7           1            29   31     2       0.1807956286E-04      30   30    2         0.6572464526E-03      0.1343926922E-01
          0                 8           1            29   32     1       0.1153069441E-04      29   31    2         0.5796541942E-03      0.1220419846E-01
          0                 9           1            30   31     1       0.1424212771E-04      30   30    2         0.5243442557E-03      0.1086982727E-01
          0                10           1            29   32     1       0.9227700078E-05      41   23    2         0.5016618381E-03      0.9892524292E-02

    ------------------------------------------------
       NWT REQUIRED           10 OUTER ITERATIONS 
       AND A TOTAL OF         10 INNER ITERATIONS.
    ------------------------------------------------

 OUTPUT CONTROL FOR STRESS PERIOD    1   TIME STEP  399
    SAVE HEAD FOR ALL LAYERS
 SOLVING FOR ZETA FOR LAYER     1 ZONE     2

     598 UPPER PART EQS.       615 LOWER PART EQS.    BAND WIDTH + 1 =   37
 STRESS PERIOD=  1 TIMESTEP=399 LAYER=  1 ZONE=  2 ACTIVE CELLS= 1213 NUMBER OF EQUATIONS=    1213
 SOLVING FOR ZETA FOR LAYER     2 ZONE     2

     541 UPPER PART EQS.       556 LOWER PART EQS.    BAND WIDTH + 1 =   34
 STRESS PERIOD=  1 TIMESTEP=399 LAYER=  2 ZONE=  2 ACTIVE CELLS= 1097 NUMBER OF EQUATIONS=    1097
 UBUDSV SAVING "      ZETASRF  1" ON UNIT 55 AT TIME STEP399, STRESS PERIOD    1

 HEAD WILL BE SAVED ON UNIT   51 AT END OF TIME STEP  399, STRESS PERIOD    1
 
 SOLVING FOR HEAD 
                                                   Max.-Head-Change                         Max.-Flux-Residual
  Residual-Control   Outer-Iter.   Inner-Iter.     Column Row Layer    Maximum-Head-Change  Column Row Layer    Maximum-Flux-Residual          L2-NORM 
          0                 1           1             8   25     1       0.6308577608E-03       8   34    1         0.6310667881E+00      0.4811790286E+01
          0                 2           1            34   50     2      -0.4256123880E-04      50   35    1        -0.7314707085E-02      0.9082939952E-01
          0                 3           1            33   51     2      -0.2312244773E-04      35   52    1        -0.1782792646E-02      0.2668750796E-01
          0                 4           1            34   27     1       0.1427487032E-04      35   26    1         0.7831161784E-03      0.1476935293E-01
          0                 5           1            33   31     2       0.1636586182E-04      33   31    2         0.6970478112E-03      0.1106658457E-01
          0                 6           1            33   31     2       0.1135418868E-04      33   31    2         0.5811005703E-03      0.9147379607E-02
          0                 7           1            33   31     2       0.1135413117E-04      33   31    2         0.4818906494E-03      0.7909482441E-02
          0                 8           1            33   31     2       0.8553743810E-05      34   30    2         0.3996492308E-03      0.7024240747E-02

    ------------------------------------------------
       NWT REQUIRED            8 OUTER ITERATIONS 
       AND A TOTAL OF          8 INNER ITERATIONS.
    ------------------------------------------------

 OUTPUT CONTROL FOR STRESS PERIOD    1   TIME STEP  400
    SAVE HEAD FOR ALL LAYERS
 SOLVING FOR ZETA FOR LAYER     1 ZONE     2

     590 UPPER PART EQS.       593 LOWER PART EQS.    BAND WIDTH + 1 =   24
 STRESS PERIOD=  1 TIMESTEP=400 LAYER=  1 ZONE=  2 ACTIVE CELLS= 1183 NUMBER OF EQUATIONS=    1183
 SOLVING FOR ZETA FOR LAYER     2 ZONE     2

     541 UPPER PART EQS.       556 LOWER PART EQS.    BAND WIDTH + 1 =   34
 STRESS PERIOD=  1 TIMESTEP=400 LAYER=  2 ZONE=  2 ACTIVE CELLS= 1097 NUMBER OF EQUATIONS=    1097
 UBUDSV SAVING "      ZETASRF  1" ON UNIT 55 AT TIME STEP400, STRESS PERIOD    1

 HEAD WILL BE SAVED ON UNIT   51 AT END OF TIME STEP  400, STRESS PERIOD    1
 
 SOLVING FOR HEAD 
                                                   Max.-Head-Change                         Max.-Flux-Residual
  Residual-Control   Outer-Iter.   Inner-Iter.     Column Row Layer    Maximum-Head-Change  Column Row Layer    Maximum-Flux-Residual          L2-NORM 
          0                 1           1             8   30     1       0.6851633835E-03      27    8    1         0.6220331701E+00      0.4417275830E+01
          0                 2           1            11   27     2      -0.4160946428E-04      51   34    1        -0.9416112271E-02      0.8738234063E-01
          0                 3           1            40   29     1       0.2516892164E-04      12   32    2        -0.1803642374E-02      0.3068772861E-01
          0                 4           1            35   31     2       0.1438118579E-04      36   28    2         0.8577530892E-03      0.1720488952E-01
          0                 5           1            32   32     2       0.1975683342E-04      32   32    2         0.7782843686E-03      0.1236848888E-01
          0                 6           1            31   32     1       0.1102199547E-04      30   30    2         0.6127064150E-03      0.9855327103E-02
          0                 7           1            31   31     2       0.1381099110E-04      32   32    2         0.5333995093E-03      0.8385560249E-02
          0                 8           1            30   32     2       0.8337782272E-05      30   30    2         0.4164429400E-03      0.7463899572E-02

    ------------------------------------------------
       NWT REQUIRED            8 OUTER ITERATIONS 
       AND A TOTAL OF          8 INNER ITERATIONS.
    ------------------------------------------------

 OUTPUT CONTROL FOR STRESS PERIOD    1   TIME STEP  401
    SAVE HEAD FOR ALL LAYERS
 SOLVING FOR ZETA FOR LAYER     1 ZONE     2

     627 UPPER PART EQS.       613 LOWER PART EQS.    BAND WIDTH + 1 =   30
 STRESS PERIOD=  1 TIMESTEP=401 LAYER=  1 ZONE=  2 ACTIVE CELLS= 1240 NUMBER OF EQUATIONS=    1240
 SOLVING FOR ZETA FOR LAYER     2 ZONE     2

     541 UPPER PART EQS.       556 LOWER PART EQS.    BAND WIDTH + 1 =   34
 STRESS PERIOD=  1 TIMESTEP=401 LAYER=  2 ZONE=  2 ACTIVE CELLS= 1097 NUMBER OF EQUATIONS=    1097
 UBUDSV SAVING "      ZETASRF  1" ON UNIT 55 AT TIME STEP401, STRESS PERIOD    1

 HEAD WILL BE SAVED ON UNIT   51 AT END OF TIME STEP  401, STRESS PERIOD    1
 
 SOLVING FOR HEAD 
                                                   Max.-Head-Change                         Max.-Flux-Residual
  Residual-Control   Outer-Iter.   Inner-Iter.     Column Row Layer    Maximum-Head-Change  Column Row Layer    Maximum-Flux-Residual          L2-NORM 
          0                 1           1            31    8     1       0.6450669842E-03       8   33    1         0.5886564174E+00      0.4714691750E+01
          0                 2           1            23   46     1       0.2938084068E-04      11   22    1         0.7808397072E-02      0.8852895401E-01
          0                 3           1            27   20     1       0.2776490099E-04      23   45    2         0.1515767521E-02      0.2801607528E-01
          0                 4           1            24   40     2       0.1789033890E-04      44   40    2         0.1557443495E-02      0.2253131886E-01
          0                 5           1            27   37     2       0.2169816426E-04      18   38    2         0.1181344303E-02      0.1956428898E-01
          0                 6           1            28   33     1       0.1371538057E-04      18   38    2         0.1093298804E-02      0.1771412816E-01
          0                 7           1            30   32     2       0.2025219307E-04      18   38    2         0.8690893102E-03      0.1547737115E-01
          0                 8           1            29   32     1       0.1143578178E-04      18   38    2         0.8190861722E-03      0.1418016563E-01
          0                 9           1            30   31     1       0.1709297578E-04      18   38    2         0.6732783502E-03      0.1240073919E-01
          0                10           1            29   32     1       0.9393478831E-05      18   38    2         0.6273432537E-03      0.1138023658E-01

    ------------------------------------------------
       NWT REQUIRED           10 OUTER ITERATIONS 
       AND A TOTAL OF         10 INNER ITERATIONS.
    ------------------------------------------------

 OUTPUT CONTROL FOR STRESS PERIOD    1   TIME STEP  402
    SAVE HEAD FOR ALL LAYERS
 SOLVING FOR ZETA FOR LAYER     1 ZONE     2

     567 UPPER PART EQS.       580 LOWER PART EQS.    BAND WIDTH + 1 =   33
 STRESS PERIOD=  1 TIMESTEP=402 LAYER=  1 ZONE=  2 ACTIVE CELLS= 1147 NUMBER OF EQUATIONS=    1147
 SOLVING FOR ZETA FOR LAYER     2 ZONE     2

     541 UPPER PART EQS.       556 LOWER PART EQS.    BAND WIDTH + 1 =   34
 STRESS PERIOD=  1 TIMESTEP=402 LAYER=  2 ZONE=  2 ACTIVE CELLS= 1097 NUMBER OF EQUATIONS=    1097
 UBUDSV SAVING "      ZETASRF  1" ON UNIT 55 AT TIME STEP402, STRESS PERIOD    1

 HEAD WILL BE SAVED ON UNIT   51 AT END OF TIME STEP  402, STRESS PERIOD    1
 
 SOLVING FOR HEAD 
                                                   Max.-Head-Change                         Max.-Flux-Residual
  Residual-Control   Outer-Iter.   Inner-Iter.     Column Row Layer    Maximum-Head-Change  Column Row Layer    Maximum-Flux-Residual          L2-NORM 
          0                 1           1             8   25     1       0.6335732680E-03       8   34    1         0.6267470476E+00      0.4900390350E+01
          0                 2           1            42   50     2      -0.5182763277E-04      11   26    1         0.9359867915E-02      0.1069160160E+00
          0                 3           1            46   48     2      -0.3674779873E-04      11   26    1        -0.2361903997E-02      0.4127045435E-01
          0                 4           1            35   30     1       0.1567910196E-04      18   19    1        -0.1218881450E-02      0.2232039978E-01
          0                 5           1            33   31     2       0.1922165494E-04      33   31    2         0.8184154582E-03      0.1408538161E-01
          0                 6           1            33   31     2       0.1007626473E-04      33   31    2         0.6200783880E-03      0.9512843020E-02
          0                 7           1            32   31     1       0.1233270800E-04      33   31    2         0.5024246095E-03      0.6869007914E-02
          0                 8           1            33   31     2       0.5916248699E-05      33   31    2         0.3573754362E-03      0.5360471522E-02

    ------------------------------------------------
       NWT REQUIRED            8 OUTER ITERATIONS 
       AND A TOTAL OF          8 INNER ITERATIONS.
    ------------------------------------------------

 OUTPUT CONTROL FOR STRESS PERIOD    1   TIME STEP  403
    SAVE HEAD FOR ALL LAYERS
 SOLVING FOR ZETA FOR LAYER     1 ZONE     2

     610 UPPER PART EQS.       617 LOWER PART EQS.    BAND WIDTH + 1 =   27
 STRESS PERIOD=  1 TIMESTEP=403 LAYER=  1 ZONE=  2 ACTIVE CELLS= 1227 NUMBER OF EQUATIONS=    1227
 SOLVING FOR ZETA FOR LAYER     2 ZONE     2

     541 UPPER PART EQS.       556 LOWER PART EQS.    BAND WIDTH + 1 =   34
 STRESS PERIOD=  1 TIMESTEP=403 LAYER=  2 ZONE=  2 ACTIVE CELLS= 1097 NUMBER OF EQUATIONS=    1097
 UBUDSV SAVING "      ZETASRF  1" ON UNIT 55 AT TIME STEP403, STRESS PERIOD    1

 HEAD WILL BE SAVED ON UNIT   51 AT END OF TIME STEP  403, STRESS PERIOD    1
 
 SOLVING FOR HEAD 
                                                   Max.-Head-Change                         Max.-Flux-Residual
  Residual-Control   Outer-Iter.   Inner-Iter.     Column Row Layer    Maximum-Head-Change  Column Row Layer    Maximum-Flux-Residual          L2-NORM 
          0                 1           1             8   30     1       0.6893106508E-03      27    8    1         0.6168943345E+00      0.4638120960E+01
          0                 2           1            10   32     2      -0.3115191942E-04      34   51    1         0.7288310617E-02      0.8218607300E-01
          0                 3           1            24   21     1       0.2618652607E-04      12   32    2        -0.1457531391E-02      0.2419712130E-01
          0                 4           1            27   24     1       0.1506115257E-04      36   41    1         0.9824274310E-03      0.1721008031E-01
          0                 5           1            31   35     2       0.1815082076E-04      36   41    1         0.7886040272E-03      0.1476710630E-01
          0                 6           1            30   33     1       0.1256436751E-04      36   41    1         0.7006594599E-03      0.1329926395E-01
          0                 7           1            31   33     2       0.1431179597E-04      36   41    1         0.5883916210E-03      0.1183391781E-01
          0                 8           1            30   32     2       0.1059266290E-04      36   41    1         0.5407916960E-03      0.1075635819E-01
          0                 9           1            31   30     1       0.1113876456E-04      36   41    1         0.4608005027E-03      0.9617280757E-02
          0                10           1            30   32     2       0.8841917639E-05      36   41    1         0.4284066766E-03      0.8744028164E-02

    ------------------------------------------------
       NWT REQUIRED           10 OUTER ITERATIONS 
       AND A TOTAL OF         10 INNER ITERATIONS.
    ------------------------------------------------

 OUTPUT CONTROL FOR STRESS PERIOD    1   TIME STEP  404
    SAVE HEAD FOR ALL LAYERS
 SOLVING FOR ZETA FOR LAYER     1 ZONE     2

     600 UPPER PART EQS.       591 LOWER PART EQS.    BAND WIDTH + 1 =   25
 STRESS PERIOD=  1 TIMESTEP=404 LAYER=  1 ZONE=  2 ACTIVE CELLS= 1191 NUMBER OF EQUATIONS=    1191
 SOLVING FOR ZETA FOR LAYER     2 ZONE     2

     547 UPPER PART EQS.       556 LOWER PART EQS.    BAND WIDTH + 1 =   31
 STRESS PERIOD=  1 TIMESTEP=404 LAYER=  2 ZONE=  2 ACTIVE CELLS= 1103 NUMBER OF EQUATIONS=    1103
 UBUDSV SAVING "      ZETASRF  1" ON UNIT 55 AT TIME STEP404, STRESS PERIOD    1

 HEAD WILL BE SAVED ON UNIT   51 AT END OF TIME STEP  404, STRESS PERIOD    1
 
 SOLVING FOR HEAD 
                                                   Max.-Head-Change                         Max.-Flux-Residual
  Residual-Control   Outer-Iter.   Inner-Iter.     Column Row Layer    Maximum-Head-Change  Column Row Layer    Maximum-Flux-Residual          L2-NORM 
          0                 1           1            31    8     1       0.6474281273E-03       8   33    1         0.5910266302E+00      0.4776860354E+01
          0                 2           1            34   17     1       0.3122878683E-04      28    9    1         0.7445334825E-02      0.8793225143E-01
          0                 3           1            31   20     1       0.2908625954E-04      36   45    1         0.1596134223E-02      0.2903277466E-01
          0                 4           1            31   26     1       0.1624835868E-04      35   37    2         0.9586810598E-03      0.1895079548E-01
          0                 5           1            31   31     2       0.2535015601E-04      31   29    2         0.8747551630E-03      0.1556439876E-01
          0                 6           1            30   31     1       0.1360942217E-04      30   30    2         0.7404877479E-03      0.1370328490E-01
          0                 7           1            31   31     2       0.1908921489E-04      32   32    2         0.6602547087E-03      0.1213948251E-01
          0                 8           1            30   32     2       0.1049345245E-04      43   29    2         0.5520138392E-03      0.1102331119E-01
          0                 9           1            32   31     1       0.1325103314E-04      33   31    2         0.4943516847E-03      0.9802151301E-02
          0                10           1            30   32     2       0.8670457738E-05      43   29    2         0.4498098417E-03      0.8931225557E-02

    ------------------------------------------------
       NWT REQUIRED           10 OUTER ITERATIONS 
       AND A TOTAL OF         10 INNER ITERATIONS.
    ------------------------------------------------

 OUTPUT CONTROL FOR STRESS PERIOD    1   TIME STEP  405
    SAVE HEAD FOR ALL LAYERS
 SOLVING FOR ZETA FOR LAYER     1 ZONE     2

     594 UPPER PART EQS.       606 LOWER PART EQS.    BAND WIDTH + 1 =   32
 STRESS PERIOD=  1 TIMESTEP=405 LAYER=  1 ZONE=  2 ACTIVE CELLS= 1200 NUMBER OF EQUATIONS=    1200
 SOLVING FOR ZETA FOR LAYER     2 ZONE     2

     549 UPPER PART EQS.       556 LOWER PART EQS.    BAND WIDTH + 1 =   30
 STRESS PERIOD=  1 TIMESTEP=405 LAYER=  2 ZONE=  2 ACTIVE CELLS= 1105 NUMBER OF EQUATIONS=    1105
 UBUDSV SAVING "      ZETASRF  1" ON UNIT 55 AT TIME STEP405, STRESS PERIOD    1

 HEAD WILL BE SAVED ON UNIT   51 AT END OF TIME STEP  405, STRESS PERIOD    1
 
 SOLVING FOR HEAD 
                                                   Max.-Head-Change                         Max.-Flux-Residual
  Residual-Control   Outer-Iter.   Inner-Iter.     Column Row Layer    Maximum-Head-Change  Column Row Layer    Maximum-Flux-Residual          L2-NORM 
          0                 1           1             8   25     1       0.6406868280E-03       8   34    1         0.6214009863E+00      0.5177972564E+01
          0                 2           1            35   51     2      -0.3492016086E-04      11   26    1         0.1165956975E-01      0.8985978298E-01
          0                 3           1            30   50     2      -0.2264779131E-04      38   50    2        -0.1612118398E-02      0.2251115133E-01
          0                 4           1            33   28     1       0.1094954420E-04      44   36    2         0.7293798237E-03      0.1220422737E-01
          0                 5           1            33   31     2       0.1248125292E-04      34   30    2         0.5394695760E-03      0.8658453832E-02
          0                 6           1            33   31     2       0.8187148880E-05      33   31    2         0.4489808290E-03      0.6939679032E-02

    ------------------------------------------------
       NWT REQUIRED            6 OUTER ITERATIONS 
       AND A TOTAL OF          6 INNER ITERATIONS.
    ------------------------------------------------

 OUTPUT CONTROL FOR STRESS PERIOD    1   TIME STEP  406
    SAVE HEAD FOR ALL LAYERS
 SOLVING FOR ZETA FOR LAYER     1 ZONE     2

     589 UPPER PART EQS.       595 LOWER PART EQS.    BAND WIDTH + 1 =   26
 STRESS PERIOD=  1 TIMESTEP=406 LAYER=  1 ZONE=  2 ACTIVE CELLS= 1184 NUMBER OF EQUATIONS=    1184
 SOLVING FOR ZETA FOR LAYER     2 ZONE     2

     549 UPPER PART EQS.       556 LOWER PART EQS.    BAND WIDTH + 1 =   30
 STRESS PERIOD=  1 TIMESTEP=406 LAYER=  2 ZONE=  2 ACTIVE CELLS= 1105 NUMBER OF EQUATIONS=    1105
 UBUDSV SAVING "      ZETASRF  1" ON UNIT 55 AT TIME STEP406, STRESS PERIOD    1

 HEAD WILL BE SAVED ON UNIT   51 AT END OF TIME STEP  406, STRESS PERIOD    1
 
 SOLVING FOR HEAD 
                                                   Max.-Head-Change                         Max.-Flux-Residual
  Residual-Control   Outer-Iter.   Inner-Iter.     Column Row Layer    Maximum-Head-Change  Column Row Layer    Maximum-Flux-Residual          L2-NORM 
          0                 1           1             8   30     1       0.6937943752E-03      27    8    1         0.6131104692E+00      0.4478938169E+01
          0                 2           1            11   27     2      -0.4497626333E-04      51   34    1        -0.1011087027E-01      0.9086669708E-01
          0                 3           1            23   22     1       0.3118890768E-04      12   32    2        -0.1846749183E-02      0.3280900819E-01
          0                 4           1            28   25     1       0.1845509340E-04      26   22    2         0.1069547171E-02      0.2087007202E-01
          0                 5           1            32   32     2       0.2527875038E-04      32   32    2         0.9549620823E-03      0.1710139342E-01
          0                 6           1            30   31     1       0.1604621791E-04      30   30    2         0.8127371206E-03      0.1498639949E-01
          0                 7           1            31   31     2       0.1945172664E-04      32   32    2         0.7323635135E-03      0.1331781529E-01
          0                 8           1            30   32     2       0.1234502858E-04      30   30    2         0.6058921941E-03      0.1204773182E-01
          0                 9           1            31   31     2       0.1423360780E-04      33   31    2         0.5533803613E-03      0.1078133113E-01
          0                10           1            30   32     2       0.9784946023E-05      43   29    2         0.4949686962E-03      0.9802646159E-02

    ------------------------------------------------
       NWT REQUIRED           10 OUTER ITERATIONS 
       AND A TOTAL OF         10 INNER ITERATIONS.
    ------------------------------------------------

 OUTPUT CONTROL FOR STRESS PERIOD    1   TIME STEP  407
    SAVE HEAD FOR ALL LAYERS
 SOLVING FOR ZETA FOR LAYER     1 ZONE     2

     621 UPPER PART EQS.       609 LOWER PART EQS.    BAND WIDTH + 1 =   28
 STRESS PERIOD=  1 TIMESTEP=407 LAYER=  1 ZONE=  2 ACTIVE CELLS= 1230 NUMBER OF EQUATIONS=    1230
 SOLVING FOR ZETA FOR LAYER     2 ZONE     2

     549 UPPER PART EQS.       556 LOWER PART EQS.    BAND WIDTH + 1 =   30
 STRESS PERIOD=  1 TIMESTEP=407 LAYER=  2 ZONE=  2 ACTIVE CELLS= 1105 NUMBER OF EQUATIONS=    1105
 UBUDSV SAVING "      ZETASRF  1" ON UNIT 55 AT TIME STEP407, STRESS PERIOD    1

 HEAD WILL BE SAVED ON UNIT   51 AT END OF TIME STEP  407, STRESS PERIOD    1
 
 SOLVING FOR HEAD 
                                                   Max.-Head-Change                         Max.-Flux-Residual
  Residual-Control   Outer-Iter.   Inner-Iter.     Column Row Layer    Maximum-Head-Change  Column Row Layer    Maximum-Flux-Residual          L2-NORM 
          0                 1           1            31    8     1       0.6520678757E-03       8   33    1         0.5927884690E+00      0.4762560796E+01
          0                 2           1            31   18     1       0.1879149061E-04      28    9    1         0.7453393183E-02      0.7516198436E-01
          0                 3           1            32   21     1       0.2146176301E-04      33   20    1         0.1067848437E-02      0.1915454579E-01
          0                 4           1            31   26     1       0.1556636102E-04      16   32    2         0.1017321505E-02      0.1515097553E-01
          0                 5           1            30   31     1       0.1756921381E-04      17   35    2         0.7086578970E-03      0.1327046895E-01
          0                 6           1            30   31     1       0.1198241385E-04      16   32    2         0.6680726243E-03      0.1205687248E-01
          0                 7           1            31   32     1       0.1398249124E-04      17   35    2         0.5723722185E-03      0.1069945068E-01
          0                 8           1            29   32     1       0.9429484915E-05      16   32    2         0.5092526933E-03      0.9786453711E-02

    ------------------------------------------------
       NWT REQUIRED            8 OUTER ITERATIONS 
       AND A TOTAL OF          8 INNER ITERATIONS.
    ------------------------------------------------

 OUTPUT CONTROL FOR STRESS PERIOD    1   TIME STEP  408
    SAVE HEAD FOR ALL LAYERS
 SOLVING FOR ZETA FOR LAYER     1 ZONE     2

     583 UPPER PART EQS.       606 LOWER PART EQS.    BAND WIDTH + 1 =   39
 STRESS PERIOD=  1 TIMESTEP=408 LAYER=  1 ZONE=  2 ACTIVE CELLS= 1189 NUMBER OF EQUATIONS=    1189
 SOLVING FOR ZETA FOR LAYER     2 ZONE     2

     549 UPPER PART EQS.       556 LOWER PART EQS.    BAND WIDTH + 1 =   30
 STRESS PERIOD=  1 TIMESTEP=408 LAYER=  2 ZONE=  2 ACTIVE CELLS= 1105 NUMBER OF EQUATIONS=    1105
 UBUDSV SAVING "      ZETASRF  1" ON UNIT 55 AT TIME STEP408, STRESS PERIOD    1

 HEAD WILL BE SAVED ON UNIT   51 AT END OF TIME STEP  408, STRESS PERIOD    1
 
 SOLVING FOR HEAD 
                                                   Max.-Head-Change                         Max.-Flux-Residual
  Residual-Control   Outer-Iter.   Inner-Iter.     Column Row Layer    Maximum-Head-Change  Column Row Layer    Maximum-Flux-Residual          L2-NORM 
          0                 1           1             8   25     1       0.6405882039E-03       8   34    1         0.6180921000E+00      0.5076057208E+01
          0                 2           1            34   50     2      -0.4289635581E-04      11   26    1         0.9188339734E-02      0.8972762973E-01
          0                 3           1            39   24     1       0.2521146833E-04      35   52    1        -0.1833213806E-02      0.3026054073E-01
          0                 4           1            36   30     2       0.1578209213E-04      43   29    2         0.9397245300E-03      0.1744635184E-01
          0                 5           1            33   31     2       0.2023408923E-04      33   31    2         0.8040147305E-03      0.1316293679E-01
          0                 6           1            33   31     2       0.1225805293E-04      33   31    2         0.6664244626E-03      0.1093788516E-01
          0                 7           1            33   31     2       0.1505153544E-04      33   31    2         0.5731296795E-03      0.9479563625E-02
          0                 8           1            33   31     2       0.8923495799E-05      43   33    2         0.4580612735E-03      0.8474576947E-02

    ------------------------------------------------
       NWT REQUIRED            8 OUTER ITERATIONS 
       AND A TOTAL OF          8 INNER ITERATIONS.
    ------------------------------------------------

 OUTPUT CONTROL FOR STRESS PERIOD    1   TIME STEP  409
    SAVE HEAD FOR ALL LAYERS
 SOLVING FOR ZETA FOR LAYER     1 ZONE     2

     600 UPPER PART EQS.       599 LOWER PART EQS.    BAND WIDTH + 1 =   23
 STRESS PERIOD=  1 TIMESTEP=409 LAYER=  1 ZONE=  2 ACTIVE CELLS= 1199 NUMBER OF EQUATIONS=    1199
 SOLVING FOR ZETA FOR LAYER     2 ZONE     2

     549 UPPER PART EQS.       556 LOWER PART EQS.    BAND WIDTH + 1 =   30
 STRESS PERIOD=  1 TIMESTEP=409 LAYER=  2 ZONE=  2 ACTIVE CELLS= 1105 NUMBER OF EQUATIONS=    1105
 UBUDSV SAVING "      ZETASRF  1" ON UNIT 55 AT TIME STEP409, STRESS PERIOD    1

 HEAD WILL BE SAVED ON UNIT   51 AT END OF TIME STEP  409, STRESS PERIOD    1
 
 SOLVING FOR HEAD 
                                                   Max.-Head-Change                         Max.-Flux-Residual
  Residual-Control   Outer-Iter.   Inner-Iter.     Column Row Layer    Maximum-Head-Change  Column Row Layer    Maximum-Flux-Residual          L2-NORM 
          0                 1           1             8   30     1       0.7004493668E-03      27    8    1         0.6091296269E+00      0.4746768269E+01
          0                 2           1            10   32     2      -0.3203890291E-04       5   32    1         0.7402370603E-02      0.7916415083E-01
          0                 3           1            24   21     1       0.2688974314E-04      12   32    2        -0.1533380639E-02      0.2468676320E-01
          0                 4           1            28   25     1       0.1483041379E-04      35   42    1         0.8760223982E-03      0.1576119632E-01
          0                 5           1            31   33     2       0.1945828761E-04      31   33    2         0.7339108398E-03      0.1283954379E-01
          0                 6           1            30   32     2       0.1203169665E-04      30   30    2         0.6131350248E-03      0.1121842089E-01
          0                 7           1            31   31     2       0.1440789930E-04      30   30    2         0.5386224715E-03      0.9937788969E-02
          0                 8           1            30   32     2       0.9346293695E-05      30   30    2         0.4518858121E-03      0.8991798161E-02

    ------------------------------------------------
       NWT REQUIRED            8 OUTER ITERATIONS 
       AND A TOTAL OF          8 INNER ITERATIONS.
    ------------------------------------------------

 OUTPUT CONTROL FOR STRESS PERIOD    1   TIME STEP  410
    SAVE HEAD FOR ALL LAYERS
 SOLVING FOR ZETA FOR LAYER     1 ZONE     2

     617 UPPER PART EQS.       597 LOWER PART EQS.    BAND WIDTH + 1 =   36
 STRESS PERIOD=  1 TIMESTEP=410 LAYER=  1 ZONE=  2 ACTIVE CELLS= 1214 NUMBER OF EQUATIONS=    1214
 SOLVING FOR ZETA FOR LAYER     2 ZONE     2

     549 UPPER PART EQS.       556 LOWER PART EQS.    BAND WIDTH + 1 =   30
 STRESS PERIOD=  1 TIMESTEP=410 LAYER=  2 ZONE=  2 ACTIVE CELLS= 1105 NUMBER OF EQUATIONS=    1105
 UBUDSV SAVING "      ZETASRF  1" ON UNIT 55 AT TIME STEP410, STRESS PERIOD    1

 HEAD WILL BE SAVED ON UNIT   51 AT END OF TIME STEP  410, STRESS PERIOD    1
 
 SOLVING FOR HEAD 
                                                   Max.-Head-Change                         Max.-Flux-Residual
  Residual-Control   Outer-Iter.   Inner-Iter.     Column Row Layer    Maximum-Head-Change  Column Row Layer    Maximum-Flux-Residual          L2-NORM 
          0                 1           1            31    8     1       0.6556195098E-03       8   33    1         0.5960589770E+00      0.4775557863E+01
          0                 2           1            34   17     1       0.2959743089E-04      28    9    1         0.7382165599E-02      0.8165883798E-01
          0                 3           1            33   20     1       0.2825344531E-04      31   46    1         0.1576556606E-02      0.2638324964E-01
          0                 4           1            35   37     2       0.1932703194E-04      35   37    2         0.9661309377E-03      0.2022720330E-01
          0                 5           1            31   31     2       0.2396136852E-04      31   29    2         0.8840771546E-03      0.1786662711E-01
          0                 6           1            29   32     1       0.1577365137E-04      29   31    2         0.7784855468E-03      0.1617550531E-01
          0                 7           1            31   31     2       0.1937418611E-04      32   32    2         0.7164737422E-03      0.1444226230E-01
          0                 8           1            30   32     2       0.1235200845E-04      43   29    2         0.6527629899E-03      0.1313900195E-01
          0                 9           1            32   31     1       0.1540653749E-04      33   31    2         0.5720003420E-03      0.1171901006E-01
          0                10           1            30   32     2       0.9851484155E-05      43   29    2         0.5453869184E-03      0.1067644455E-01

    ------------------------------------------------
       NWT REQUIRED           10 OUTER ITERATIONS 
       AND A TOTAL OF         10 INNER ITERATIONS.
    ------------------------------------------------

 OUTPUT CONTROL FOR STRESS PERIOD    1   TIME STEP  411
    SAVE HEAD FOR ALL LAYERS
 SOLVING FOR ZETA FOR LAYER     1 ZONE     2

     587 UPPER PART EQS.       602 LOWER PART EQS.    BAND WIDTH + 1 =   32
 STRESS PERIOD=  1 TIMESTEP=411 LAYER=  1 ZONE=  2 ACTIVE CELLS= 1189 NUMBER OF EQUATIONS=    1189
 SOLVING FOR ZETA FOR LAYER     2 ZONE     2

     549 UPPER PART EQS.       556 LOWER PART EQS.    BAND WIDTH + 1 =   30
 STRESS PERIOD=  1 TIMESTEP=411 LAYER=  2 ZONE=  2 ACTIVE CELLS= 1105 NUMBER OF EQUATIONS=    1105
 UBUDSV SAVING "      ZETASRF  1" ON UNIT 55 AT TIME STEP411, STRESS PERIOD    1

 HEAD WILL BE SAVED ON UNIT   51 AT END OF TIME STEP  411, STRESS PERIOD    1
 
 SOLVING FOR HEAD 
                                                   Max.-Head-Change                         Max.-Flux-Residual
  Residual-Control   Outer-Iter.   Inner-Iter.     Column Row Layer    Maximum-Head-Change  Column Row Layer    Maximum-Flux-Residual          L2-NORM 
          0                 1           1             8   25     1       0.6472922126E-03       8   34    1         0.6143920601E+00      0.5081283309E+01
          0                 2           1            27   51     2      -0.3690396856E-04      11   26    1         0.1113328349E-01      0.8717280021E-01
          0                 3           1            29   51     2      -0.2399261724E-04      38   50    2        -0.1596424758E-02      0.2591603121E-01
          0                 4           1            32   29     1       0.1181355083E-04      42   26    2         0.6964564897E-03      0.1394897751E-01
          0                 5           1            31   30     1       0.1434804568E-04      31   29    2         0.6044241662E-03      0.9700434375E-02
          0                 6           1            31   31     2       0.8771260033E-05      33   31    2         0.4967635507E-03      0.7556349243E-02

    ------------------------------------------------
       NWT REQUIRED            6 OUTER ITERATIONS 
       AND A TOTAL OF          6 INNER ITERATIONS.
    ------------------------------------------------

 OUTPUT CONTROL FOR STRESS PERIOD    1   TIME STEP  412
    SAVE HEAD FOR ALL LAYERS
 SOLVING FOR ZETA FOR LAYER     1 ZONE     2

     598 UPPER PART EQS.       591 LOWER PART EQS.    BAND WIDTH + 1 =   26
 STRESS PERIOD=  1 TIMESTEP=412 LAYER=  1 ZONE=  2 ACTIVE CELLS= 1189 NUMBER OF EQUATIONS=    1189
 SOLVING FOR ZETA FOR LAYER     2 ZONE     2

     549 UPPER PART EQS.       553 LOWER PART EQS.    BAND WIDTH + 1 =   30
 STRESS PERIOD=  1 TIMESTEP=412 LAYER=  2 ZONE=  2 ACTIVE CELLS= 1102 NUMBER OF EQUATIONS=    1102
 UBUDSV SAVING "      ZETASRF  1" ON UNIT 55 AT TIME STEP412, STRESS PERIOD    1

 HEAD WILL BE SAVED ON UNIT   51 AT END OF TIME STEP  412, STRESS PERIOD    1
 
 SOLVING FOR HEAD 
                                                   Max.-Head-Change                         Max.-Flux-Residual
  Residual-Control   Outer-Iter.   Inner-Iter.     Column Row Layer    Maximum-Head-Change  Column Row Layer    Maximum-Flux-Residual          L2-NORM 
          0                 1           1             8   30     1       0.7056836475E-03      35   54    1         0.6057795564E+00      0.4886470788E+01
          0                 2           1            11   27     2      -0.4249999248E-04      51   34    1        -0.1009682794E-01      0.8574955538E-01
          0                 3           1            40   27     1       0.2716112636E-04      12   32    2        -0.1828401085E-02      0.2837690922E-01
          0                 4           1            35   31     2       0.1693255570E-04      36   36    2         0.9505718996E-03      0.1810689788E-01
          0                 5           1            32   32     2       0.2222396386E-04      32   32    2         0.8558342989E-03      0.1488883346E-01
          0                 6           1            31   32     1       0.1423778830E-04      31   33    2         0.7069777650E-03      0.1308061774E-01
          0                 7           1            32   32     2       0.1663332750E-04      32   32    2         0.6410380718E-03      0.1163135635E-01
          0                 8           1            30   32     2       0.1099371648E-04      30   30    2         0.5272909500E-03      0.1053572801E-01
          0                 9           1            32   32     2       0.1212899517E-04      33   31    2         0.4852551199E-03      0.9435898354E-02
          0                10           1            30   32     2       0.8779136030E-05      43   29    2         0.4427156341E-03      0.8585293864E-02

    ------------------------------------------------
       NWT REQUIRED           10 OUTER ITERATIONS 
       AND A TOTAL OF         10 INNER ITERATIONS.
    ------------------------------------------------

 OUTPUT CONTROL FOR STRESS PERIOD    1   TIME STEP  413
    SAVE HEAD FOR ALL LAYERS
 SOLVING FOR ZETA FOR LAYER     1 ZONE     2

     619 UPPER PART EQS.       601 LOWER PART EQS.    BAND WIDTH + 1 =   34
 STRESS PERIOD=  1 TIMESTEP=413 LAYER=  1 ZONE=  2 ACTIVE CELLS= 1220 NUMBER OF EQUATIONS=    1220
 SOLVING FOR ZETA FOR LAYER     2 ZONE     2

     551 UPPER PART EQS.       555 LOWER PART EQS.    BAND WIDTH + 1 =   31
 STRESS PERIOD=  1 TIMESTEP=413 LAYER=  2 ZONE=  2 ACTIVE CELLS= 1106 NUMBER OF EQUATIONS=    1106
 UBUDSV SAVING "      ZETASRF  1" ON UNIT 55 AT TIME STEP413, STRESS PERIOD    1

 HEAD WILL BE SAVED ON UNIT   51 AT END OF TIME STEP  413, STRESS PERIOD    1
 
 SOLVING FOR HEAD 
                                                   Max.-Head-Change                         Max.-Flux-Residual
  Residual-Control   Outer-Iter.   Inner-Iter.     Column Row Layer    Maximum-Head-Change  Column Row Layer    Maximum-Flux-Residual          L2-NORM 
          0                 1           1            31    8     1       0.6614711254E-03       8   33    1         0.5949501534E+00      0.4786683064E+01
          0                 2           1            28   52     2      -0.1995675251E-04      51   34    1         0.7470116867E-02      0.7569980006E-01
          0                 3           1            29   20     1       0.2282527474E-04      30   19    1         0.1130381598E-02      0.1915750013E-01
          0                 4           1            30   25     1       0.1472455856E-04      29   24    1         0.7377207298E-03      0.1431859000E-01
          0                 5           1            29   31     2       0.1709278415E-04      29   27    2         0.6320061248E-03      0.1242222169E-01
          0                 6           1            29   32     1       0.1153908397E-04      29   31    2         0.5585848437E-03      0.1124178341E-01
          0                 7           1            30   31     1       0.1302024721E-04      30   30    2         0.4949000120E-03      0.9990132913E-02
          0                 8           1            29   32     1       0.9166968593E-05      29   31    2         0.4362698190E-03      0.9114180796E-02

    ------------------------------------------------
       NWT REQUIRED            8 OUTER ITERATIONS 
       AND A TOTAL OF          8 INNER ITERATIONS.
    ------------------------------------------------

 OUTPUT CONTROL FOR STRESS PERIOD    1   TIME STEP  414
    SAVE HEAD FOR ALL LAYERS
 SOLVING FOR ZETA FOR LAYER     1 ZONE     2

     586 UPPER PART EQS.       598 LOWER PART EQS.    BAND WIDTH + 1 =   29
 STRESS PERIOD=  1 TIMESTEP=414 LAYER=  1 ZONE=  2 ACTIVE CELLS= 1184 NUMBER OF EQUATIONS=    1184
 SOLVING FOR ZETA FOR LAYER     2 ZONE     2

     553 UPPER PART EQS.       556 LOWER PART EQS.    BAND WIDTH + 1 =   32
 STRESS PERIOD=  1 TIMESTEP=414 LAYER=  2 ZONE=  2 ACTIVE CELLS= 1109 NUMBER OF EQUATIONS=    1109
 UBUDSV SAVING "      ZETASRF  1" ON UNIT 55 AT TIME STEP414, STRESS PERIOD    1

 HEAD WILL BE SAVED ON UNIT   51 AT END OF TIME STEP  414, STRESS PERIOD    1
 
 SOLVING FOR HEAD 
                                                   Max.-Head-Change                         Max.-Flux-Residual
  Residual-Control   Outer-Iter.   Inner-Iter.     Column Row Layer    Maximum-Head-Change  Column Row Layer    Maximum-Flux-Residual          L2-NORM 
          0                 1           1            33   54     1       0.6566299740E-03      36    8    1         0.5725782378E+00      0.4828610489E+01
          0                 2           1            34   50     2      -0.5003329599E-04      11   26    1         0.8982315759E-02      0.9480593770E-01
          0                 3           1            46   32     2       0.3052108258E-04      47   34    1         0.2104111680E-02      0.3300420559E-01
          0                 4           1            42   32     2       0.1774451909E-04      43   33    2         0.1223800370E-02      0.1930755192E-01
          0                 5           1            37   31     2       0.1979523213E-04      46   30    2         0.8858568794E-03      0.1446559413E-01
          0                 6           1            33   31     2       0.1293494164E-04      43   29    2         0.7591014115E-03      0.1190764478E-01
          0                 7           1            33   31     2       0.1548183117E-04      33   31    2         0.6003394285E-03      0.1022164350E-01
          0                 8           1            33   31     2       0.9480839269E-05      43   29    2         0.5449101600E-03      0.9083294909E-02

    ------------------------------------------------
       NWT REQUIRED            8 OUTER ITERATIONS 
       AND A TOTAL OF          8 INNER ITERATIONS.
    ------------------------------------------------

 OUTPUT CONTROL FOR STRESS PERIOD    1   TIME STEP  415
    SAVE HEAD FOR ALL LAYERS
 SOLVING FOR ZETA FOR LAYER     1 ZONE     2

     599 UPPER PART EQS.       599 LOWER PART EQS.    BAND WIDTH + 1 =   23
 STRESS PERIOD=  1 TIMESTEP=415 LAYER=  1 ZONE=  2 ACTIVE CELLS= 1198 NUMBER OF EQUATIONS=    1198
 SOLVING FOR ZETA FOR LAYER     2 ZONE     2

     553 UPPER PART EQS.       556 LOWER PART EQS.    BAND WIDTH + 1 =   32
 STRESS PERIOD=  1 TIMESTEP=415 LAYER=  2 ZONE=  2 ACTIVE CELLS= 1109 NUMBER OF EQUATIONS=    1109
 UBUDSV SAVING "      ZETASRF  1" ON UNIT 55 AT TIME STEP415, STRESS PERIOD    1

 HEAD WILL BE SAVED ON UNIT   51 AT END OF TIME STEP  415, STRESS PERIOD    1
 
 SOLVING FOR HEAD 
                                                   Max.-Head-Change                         Max.-Flux-Residual
  Residual-Control   Outer-Iter.   Inner-Iter.     Column Row Layer    Maximum-Head-Change  Column Row Layer    Maximum-Flux-Residual          L2-NORM 
          0                 1           1             8   30     1       0.7136477307E-03      24    8    1         0.5723369260E+00      0.4565266304E+01
          0                 2           1            50   35     1      -0.4801345822E-04      50   35    1        -0.9833886635E-02      0.8371222358E-01
          0                 3           1            49   31     2      -0.3049331422E-04      52   33    1        -0.2186948688E-02      0.2861544268E-01
          0                 4           1            32   42     2       0.1511915148E-04      50   35    1        -0.1099012457E-02      0.1709089374E-01
          0                 5           1            31   37     2       0.1625853338E-04      30   47    1         0.7123240314E-03      0.1257568617E-01
          0                 6           1            30   34     2       0.1022608937E-04      29   48    1         0.5799716707E-03      0.1019997068E-01
          0                 7           1            30   30     2       0.1175532835E-04      31   29    2         0.4667990021E-03      0.8676416491E-02
          0                 8           1            30   32     2       0.8229047195E-05      30   30    2         0.3904855171E-03      0.7666245572E-02

    ------------------------------------------------
       NWT REQUIRED            8 OUTER ITERATIONS 
       AND A TOTAL OF          8 INNER ITERATIONS.
    ------------------------------------------------

 OUTPUT CONTROL FOR STRESS PERIOD    1   TIME STEP  416
    SAVE HEAD FOR ALL LAYERS
 SOLVING FOR ZETA FOR LAYER     1 ZONE     2

     615 UPPER PART EQS.       599 LOWER PART EQS.    BAND WIDTH + 1 =   31
 STRESS PERIOD=  1 TIMESTEP=416 LAYER=  1 ZONE=  2 ACTIVE CELLS= 1214 NUMBER OF EQUATIONS=    1214
 SOLVING FOR ZETA FOR LAYER     2 ZONE     2

     553 UPPER PART EQS.       556 LOWER PART EQS.    BAND WIDTH + 1 =   32
 STRESS PERIOD=  1 TIMESTEP=416 LAYER=  2 ZONE=  2 ACTIVE CELLS= 1109 NUMBER OF EQUATIONS=    1109
 UBUDSV SAVING "      ZETASRF  1" ON UNIT 55 AT TIME STEP416, STRESS PERIOD    1

 HEAD WILL BE SAVED ON UNIT   51 AT END OF TIME STEP  416, STRESS PERIOD    1
 
 SOLVING FOR HEAD 
                                                   Max.-Head-Change                         Max.-Flux-Residual
  Residual-Control   Outer-Iter.   Inner-Iter.     Column Row Layer    Maximum-Head-Change  Column Row Layer    Maximum-Flux-Residual          L2-NORM 
          0                 1           1            31   54     1       0.6555890136E-03      37    8    1         0.5701807346E+00      0.4613947020E+01
          0                 2           1            44   27     1       0.3151715433E-04      11   22    1         0.6477468248E-02      0.8612784422E-01
          0                 3           1            46   30     2       0.3445732901E-04      47   30    1         0.1959121074E-02      0.3005416230E-01
          0                 4           1            42   30     2       0.2073539411E-04      48   33    1         0.1333548848E-02      0.2166661970E-01
          0                 5           1            38   32     2       0.2338491627E-04      46   30    2         0.1004570184E-02      0.1857863562E-01
          0                 6           1            33   31     2       0.1583751425E-04      43   29    2         0.9497414446E-03      0.1660856154E-01
          0                 7           1            32   32     2       0.1973612472E-04      46   26    2         0.7349798747E-03      0.1478088677E-01
          0                 8           1            32   32     2       0.1242005802E-04      43   29    2         0.7632231703E-03      0.1340032698E-01
          0                 9           1            32   32     2       0.1587574752E-04      40   32    2         0.5832697886E-03      0.1195162807E-01
          0                10           1            31   31     2       0.9872830578E-05      43   29    2         0.6333821203E-03      0.1087401599E-01

    ------------------------------------------------
       NWT REQUIRED           10 OUTER ITERATIONS 
       AND A TOTAL OF         10 INNER ITERATIONS.
    ------------------------------------------------

 OUTPUT CONTROL FOR STRESS PERIOD    1   TIME STEP  417
    SAVE HEAD FOR ALL LAYERS
 SOLVING FOR ZETA FOR LAYER     1 ZONE     2

     594 UPPER PART EQS.       596 LOWER PART EQS.    BAND WIDTH + 1 =   25
 STRESS PERIOD=  1 TIMESTEP=417 LAYER=  1 ZONE=  2 ACTIVE CELLS= 1190 NUMBER OF EQUATIONS=    1190
 SOLVING FOR ZETA FOR LAYER     2 ZONE     2

     553 UPPER PART EQS.       554 LOWER PART EQS.    BAND WIDTH + 1 =   32
 STRESS PERIOD=  1 TIMESTEP=417 LAYER=  2 ZONE=  2 ACTIVE CELLS= 1107 NUMBER OF EQUATIONS=    1107
 UBUDSV SAVING "      ZETASRF  1" ON UNIT 55 AT TIME STEP417, STRESS PERIOD    1

 HEAD WILL BE SAVED ON UNIT   51 AT END OF TIME STEP  417, STRESS PERIOD    1
 
 SOLVING FOR HEAD 
                                                   Max.-Head-Change                         Max.-Flux-Residual
  Residual-Control   Outer-Iter.   Inner-Iter.     Column Row Layer    Maximum-Head-Change  Column Row Layer    Maximum-Flux-Residual          L2-NORM 
          0                 1           1            33    8     1       0.6575801760E-03       8   33    1         0.5769718406E+00      0.5046096981E+01
          0                 2           1            30   50     2      -0.3096683528E-04      11   26    1         0.1076115223E-01      0.8520907237E-01
          0                 3           1            36   23     1       0.1875252258E-04      28   12    2        -0.1383953663E-02      0.2302023659E-01
          0                 4           1            31   28     1       0.1177263638E-04      32   24    2         0.6646749181E-03      0.1257302941E-01
          0                 5           1            31   30     1       0.1403766518E-04      31   29    2         0.5899820462E-03      0.8918143422E-02
          0                 6           1            31   31     2       0.8513072643E-05      30   30    2         0.4738835866E-03      0.7105904518E-02

    ------------------------------------------------
       NWT REQUIRED            6 OUTER ITERATIONS 
       AND A TOTAL OF          6 INNER ITERATIONS.
    ------------------------------------------------

 OUTPUT CONTROL FOR STRESS PERIOD    1   TIME STEP  418
    SAVE HEAD FOR ALL LAYERS
 SOLVING FOR ZETA FOR LAYER     1 ZONE     2

     594 UPPER PART EQS.       595 LOWER PART EQS.    BAND WIDTH + 1 =   24
 STRESS PERIOD=  1 TIMESTEP=418 LAYER=  1 ZONE=  2 ACTIVE CELLS= 1189 NUMBER OF EQUATIONS=    1189
 SOLVING FOR ZETA FOR LAYER     2 ZONE     2

     553 UPPER PART EQS.       556 LOWER PART EQS.    BAND WIDTH + 1 =   32
 STRESS PERIOD=  1 TIMESTEP=418 LAYER=  2 ZONE=  2 ACTIVE CELLS= 1109 NUMBER OF EQUATIONS=    1109
 UBUDSV SAVING "      ZETASRF  1" ON UNIT 55 AT TIME STEP418, STRESS PERIOD    1

 HEAD WILL BE SAVED ON UNIT   51 AT END OF TIME STEP  418, STRESS PERIOD    1
 
 SOLVING FOR HEAD 
                                                   Max.-Head-Change                         Max.-Flux-Residual
  Residual-Control   Outer-Iter.   Inner-Iter.     Column Row Layer    Maximum-Head-Change  Column Row Layer    Maximum-Flux-Residual          L2-NORM 
          0                 1           1             8   30     1       0.7206830842E-03      36   54    1         0.5704114368E+00      0.4512961998E+01
          0                 2           1            11   27     2      -0.4347530291E-04      51   34    1        -0.8056678647E-02      0.8276085790E-01
          0                 3           1            12   32     2      -0.2437951596E-04      12   32    2        -0.1845330916E-02      0.2731037466E-01
          0                 4           1            35   31     2       0.1494698151E-04      36   36    2         0.8572879528E-03      0.1636303891E-01
          0                 5           1            32   32     2       0.1925067843E-04      32   32    2         0.7749995800E-03      0.1281806724E-01
          0                 6           1            30   31     1       0.1260135932E-04      30   30    2         0.6343709472E-03      0.1096425372E-01
          0                 7           1            31   31     2       0.1421076419E-04      32   32    2         0.5596712948E-03      0.9644958978E-02
          0                 8           1            30   32     2       0.9495460314E-05      30   30    2         0.4556107361E-03      0.8715652405E-02

    ------------------------------------------------
       NWT REQUIRED            8 OUTER ITERATIONS 
       AND A TOTAL OF          8 INNER ITERATIONS.
    ------------------------------------------------

 OUTPUT CONTROL FOR STRESS PERIOD    1   TIME STEP  419
    SAVE HEAD FOR ALL LAYERS
 SOLVING FOR ZETA FOR LAYER     1 ZONE     2

     616 UPPER PART EQS.       611 LOWER PART EQS.    BAND WIDTH + 1 =   27
 STRESS PERIOD=  1 TIMESTEP=419 LAYER=  1 ZONE=  2 ACTIVE CELLS= 1227 NUMBER OF EQUATIONS=    1227
 SOLVING FOR ZETA FOR LAYER     2 ZONE     2

     553 UPPER PART EQS.       556 LOWER PART EQS.    BAND WIDTH + 1 =   32
 STRESS PERIOD=  1 TIMESTEP=419 LAYER=  2 ZONE=  2 ACTIVE CELLS= 1109 NUMBER OF EQUATIONS=    1109
 UBUDSV SAVING "      ZETASRF  1" ON UNIT 55 AT TIME STEP419, STRESS PERIOD    1

 HEAD WILL BE SAVED ON UNIT   51 AT END OF TIME STEP  419, STRESS PERIOD    1
 
 SOLVING FOR HEAD 
                                                   Max.-Head-Change                         Max.-Flux-Residual
  Residual-Control   Outer-Iter.   Inner-Iter.     Column Row Layer    Maximum-Head-Change  Column Row Layer    Maximum-Flux-Residual          L2-NORM 
          0                 1           1            31    8     1       0.6729677418E-03      54   34    1         0.5982205099E+00      0.4375163132E+01
          0                 2           1            37   48     1       0.2291963028E-04      28    9    1         0.9214398330E-02      0.7614610895E-01
          0                 3           1            30   19     1       0.2660795371E-04      30   47    1         0.1597954289E-02      0.2351186476E-01
          0                 4           1            31   41     2       0.1725569386E-04      30   47    1         0.1002866609E-02      0.1831941497E-01
          0                 5           1            31   35     2       0.1923033463E-04      30   47    1         0.7273053321E-03      0.1602263851E-01
          0                 6           1            30   32     2       0.1350730108E-04      17   39    2         0.6606305945E-03      0.1448035621E-01
          0                 7           1            30   31     1       0.1654500739E-04      30   30    2         0.6011725000E-03      0.1289544730E-01
          0                 8           1            30   32     2       0.1080205726E-04      42   26    2         0.5419879643E-03      0.1172551364E-01
          0                 9           1            31   30     1       0.1339822560E-04      46   34    2         0.4958970896E-03      0.1044539175E-01
          0                10           1            31   31     2       0.8754113045E-05      42   26    2         0.4524426524E-03      0.9510071585E-02

    ------------------------------------------------
       NWT REQUIRED           10 OUTER ITERATIONS 
       AND A TOTAL OF         10 INNER ITERATIONS.
    ------------------------------------------------

 OUTPUT CONTROL FOR STRESS PERIOD    1   TIME STEP  420
    SAVE HEAD FOR ALL LAYERS
 SOLVING FOR ZETA FOR LAYER     1 ZONE     2

     590 UPPER PART EQS.       590 LOWER PART EQS.    BAND WIDTH + 1 =   24
 STRESS PERIOD=  1 TIMESTEP=420 LAYER=  1 ZONE=  2 ACTIVE CELLS= 1180 NUMBER OF EQUATIONS=    1180
 SOLVING FOR ZETA FOR LAYER     2 ZONE     2

     553 UPPER PART EQS.       556 LOWER PART EQS.    BAND WIDTH + 1 =   32
 STRESS PERIOD=  1 TIMESTEP=420 LAYER=  2 ZONE=  2 ACTIVE CELLS= 1109 NUMBER OF EQUATIONS=    1109
 UBUDSV SAVING "      ZETASRF  1" ON UNIT 55 AT TIME STEP420, STRESS PERIOD    1

 HEAD WILL BE SAVED ON UNIT   51 AT END OF TIME STEP  420, STRESS PERIOD    1
 
 SOLVING FOR HEAD 
                                                   Max.-Head-Change                         Max.-Flux-Residual
  Residual-Control   Outer-Iter.   Inner-Iter.     Column Row Layer    Maximum-Head-Change  Column Row Layer    Maximum-Flux-Residual          L2-NORM 
          0                 1           1            28   54     1       0.6880396877E-03      37    8    1         0.5412830106E+00      0.4904468280E+01
          0                 2           1            34   50     2      -0.5921744354E-04      11   26    1         0.8834983528E-02      0.1044936606E+00
          0                 3           1            46   32     2       0.3570519675E-04      47   34    1         0.2533517307E-02      0.3652192796E-01
          0                 4           1            42   32     2       0.1933234712E-04      48   33    1         0.1402357214E-02      0.2079343021E-01
          0                 5           1            39   31     2       0.1876456028E-04      46   30    2         0.9875581433E-03      0.1461340969E-01
          0                 6           1            36   31     1       0.1216280539E-04      48   33    1         0.7786255165E-03      0.1128687472E-01
          0                 7           1            34   31     1       0.1348304504E-04      46   30    2         0.5844490201E-03      0.9273227948E-02
          0                 8           1            33   31     2       0.8677560078E-05      43   29    2         0.5190620860E-03      0.8000229194E-02

    ------------------------------------------------
       NWT REQUIRED            8 OUTER ITERATIONS 
       AND A TOTAL OF          8 INNER ITERATIONS.
    ------------------------------------------------

 OUTPUT CONTROL FOR STRESS PERIOD    1   TIME STEP  421
    SAVE HEAD FOR ALL LAYERS
 SOLVING FOR ZETA FOR LAYER     1 ZONE     2

     605 UPPER PART EQS.       599 LOWER PART EQS.    BAND WIDTH + 1 =   23
 STRESS PERIOD=  1 TIMESTEP=421 LAYER=  1 ZONE=  2 ACTIVE CELLS= 1204 NUMBER OF EQUATIONS=    1204
 SOLVING FOR ZETA FOR LAYER     2 ZONE     2

     553 UPPER PART EQS.       556 LOWER PART EQS.    BAND WIDTH + 1 =   32
 STRESS PERIOD=  1 TIMESTEP=421 LAYER=  2 ZONE=  2 ACTIVE CELLS= 1109 NUMBER OF EQUATIONS=    1109
 UBUDSV SAVING "      ZETASRF  1" ON UNIT 55 AT TIME STEP421, STRESS PERIOD    1

 HEAD WILL BE SAVED ON UNIT   51 AT END OF TIME STEP  421, STRESS PERIOD    1
 
 SOLVING FOR HEAD 
                                                   Max.-Head-Change                         Max.-Flux-Residual
  Residual-Control   Outer-Iter.   Inner-Iter.     Column Row Layer    Maximum-Head-Change  Column Row Layer    Maximum-Flux-Residual          L2-NORM 
          0                 1           1             8   30     1       0.7221385595E-03       8   28    1         0.4858483223E+00      0.4172779912E+01
          0                 2           1            50   32     2      -0.5667177758E-04       5   32    1         0.7859706674E-02      0.8323211872E-01
          0                 3           1            49   31     2      -0.3644842481E-04      51   30    1        -0.2616974122E-02      0.2853038623E-01
          0                 4           1            32   42     2       0.1302686287E-04      48   33    1        -0.1312419438E-02      0.1614410097E-01
          0                 5           1            31   39     2       0.1367602960E-04      30   47    1         0.6537216427E-03      0.1082588071E-01
          0                 6           1            30   38     2       0.7747249437E-05      30   47    1         0.4959543288E-03      0.8088198487E-02

    ------------------------------------------------
       NWT REQUIRED            6 OUTER ITERATIONS 
       AND A TOTAL OF          6 INNER ITERATIONS.
    ------------------------------------------------

 OUTPUT CONTROL FOR STRESS PERIOD    1   TIME STEP  422
    SAVE HEAD FOR ALL LAYERS
 SOLVING FOR ZETA FOR LAYER     1 ZONE     2

     610 UPPER PART EQS.       599 LOWER PART EQS.    BAND WIDTH + 1 =   34
 STRESS PERIOD=  1 TIMESTEP=422 LAYER=  1 ZONE=  2 ACTIVE CELLS= 1209 NUMBER OF EQUATIONS=    1209
 SOLVING FOR ZETA FOR LAYER     2 ZONE     2

     553 UPPER PART EQS.       556 LOWER PART EQS.    BAND WIDTH + 1 =   32
 STRESS PERIOD=  1 TIMESTEP=422 LAYER=  2 ZONE=  2 ACTIVE CELLS= 1109 NUMBER OF EQUATIONS=    1109
 UBUDSV SAVING "      ZETASRF  1" ON UNIT 55 AT TIME STEP422, STRESS PERIOD    1

 HEAD WILL BE SAVED ON UNIT   51 AT END OF TIME STEP  422, STRESS PERIOD    1
 
 SOLVING FOR HEAD 
                                                   Max.-Head-Change                         Max.-Flux-Residual
  Residual-Control   Outer-Iter.   Inner-Iter.     Column Row Layer    Maximum-Head-Change  Column Row Layer    Maximum-Flux-Residual          L2-NORM 
          0                 1           1            29   54     1      -0.6140380974E-03      36    8    1         0.5829856609E+00      0.4599255496E+01
          0                 2           1            33   48     1       0.3387724959E-04      33   52    1         0.7305187546E-02      0.8138542100E-01
          0                 3           1            32   44     2       0.3505833973E-04      34   47    1         0.1997927780E-02      0.2860942992E-01
          0                 4           1            36   38     2       0.1921736426E-04      43   29    2         0.1129002703E-02      0.2161832546E-01
          0                 5           1            34   34     2       0.2381518689E-04      46   26    2         0.8922705699E-03      0.1899308725E-01
          0                 6           1            32   32     2       0.1593008965E-04      43   29    2         0.8983851723E-03      0.1717148863E-01
          0                 7           1            32   32     2       0.2034036367E-04      33   31    2         0.7372014935E-03      0.1530616416E-01
          0                 8           1            32   32     2       0.1266182095E-04      43   29    2         0.7583456440E-03      0.1390266751E-01
          0                 9           1            33   32     1       0.1663408272E-04      33   31    2         0.5994691024E-03      0.1238647289E-01
          0                10           1            32   32     2       0.1002894837E-04      43   29    2         0.6407419863E-03      0.1127111964E-01
                                                   Max.-Head-Change                         Max.-Flux-Residual
  Residual-Control   Outer-Iter.   Inner-Iter.     Column Row Layer    Maximum-Head-Change  Column Row Layer    Maximum-Flux-Residual          L2-NORM 
          0                11           1            33   32     1       0.1358959569E-04      40   32    2         0.4912927830E-03      0.1003429658E-01
          0                12           1            31   32     1       0.8020856347E-05      43   29    2         0.5371241650E-03      0.9141584545E-02

    ------------------------------------------------
       NWT REQUIRED           12 OUTER ITERATIONS 
       AND A TOTAL OF         12 INNER ITERATIONS.
    ------------------------------------------------

 OUTPUT CONTROL FOR STRESS PERIOD    1   TIME STEP  423
    SAVE HEAD FOR ALL LAYERS
 SOLVING FOR ZETA FOR LAYER     1 ZONE     2

     589 UPPER PART EQS.       591 LOWER PART EQS.    BAND WIDTH + 1 =   27
 STRESS PERIOD=  1 TIMESTEP=423 LAYER=  1 ZONE=  2 ACTIVE CELLS= 1180 NUMBER OF EQUATIONS=    1180
 SOLVING FOR ZETA FOR LAYER     2 ZONE     2

     553 UPPER PART EQS.       556 LOWER PART EQS.    BAND WIDTH + 1 =   32
 STRESS PERIOD=  1 TIMESTEP=423 LAYER=  2 ZONE=  2 ACTIVE CELLS= 1109 NUMBER OF EQUATIONS=    1109
 UBUDSV SAVING "      ZETASRF  1" ON UNIT 55 AT TIME STEP423, STRESS PERIOD    1

 HEAD WILL BE SAVED ON UNIT   51 AT END OF TIME STEP  423, STRESS PERIOD    1
 
 SOLVING FOR HEAD 
                                                   Max.-Head-Change                         Max.-Flux-Residual
  Residual-Control   Outer-Iter.   Inner-Iter.     Column Row Layer    Maximum-Head-Change  Column Row Layer    Maximum-Flux-Residual          L2-NORM 
          0                 1           1            29   54     1       0.7164779459E-03      54   34    1         0.5897456603E+00      0.4874051804E+01
          0                 2           1            30   50     2      -0.6438027776E-04      30   50    2        -0.9534170499E-02      0.9166309938E-01
          0                 3           1            31   49     2      -0.3821422708E-04      31   49    2        -0.2436746553E-02      0.2842594738E-01
          0                 4           1            35   48     1      -0.1050678187E-04      34   47    1        -0.1057796369E-02      0.1465214134E-01
          0                 5           1            28   30     2       0.1180008001E-04      38   47    1        -0.6523684164E-03      0.9309553049E-02
          0                 6           1            30   30     2       0.6501985898E-05      30   30    2         0.3949420602E-03      0.6402258193E-02

    ------------------------------------------------
       NWT REQUIRED            6 OUTER ITERATIONS 
       AND A TOTAL OF          6 INNER ITERATIONS.
    ------------------------------------------------

 OUTPUT CONTROL FOR STRESS PERIOD    1   TIME STEP  424
    SAVE HEAD FOR ALL LAYERS
 SOLVING FOR ZETA FOR LAYER     1 ZONE     2

     602 UPPER PART EQS.       589 LOWER PART EQS.    BAND WIDTH + 1 =   30
 STRESS PERIOD=  1 TIMESTEP=424 LAYER=  1 ZONE=  2 ACTIVE CELLS= 1191 NUMBER OF EQUATIONS=    1191
 SOLVING FOR ZETA FOR LAYER     2 ZONE     2

     553 UPPER PART EQS.       556 LOWER PART EQS.    BAND WIDTH + 1 =   32
 STRESS PERIOD=  1 TIMESTEP=424 LAYER=  2 ZONE=  2 ACTIVE CELLS= 1109 NUMBER OF EQUATIONS=    1109
 UBUDSV SAVING "      ZETASRF  1" ON UNIT 55 AT TIME STEP424, STRESS PERIOD    1

 HEAD WILL BE SAVED ON UNIT   51 AT END OF TIME STEP  424, STRESS PERIOD    1
 
 SOLVING FOR HEAD 
                                                   Max.-Head-Change                         Max.-Flux-Residual
  Residual-Control   Outer-Iter.   Inner-Iter.     Column Row Layer    Maximum-Head-Change  Column Row Layer    Maximum-Flux-Residual          L2-NORM 
          0                 1           1             8   31     1       0.7038538431E-03      27    8    1         0.5750595418E+00      0.4523592191E+01
          0                 2           1            37   11     2      -0.3249059697E-04      51   34    1        -0.8049445963E-02      0.7771449386E-01
          0                 3           1            40   29     1       0.1887443690E-04      12   32    2        -0.1398633737E-02      0.2166975652E-01
          0                 4           1            36   32     2       0.1156710506E-04      37   31    2         0.6614138742E-03      0.1219985952E-01
          0                 5           1            33   32     1       0.1419582047E-04      33   31    2         0.5810050986E-03      0.9175550368E-02
          0                 6           1            32   32     2       0.8991696884E-05      32   32    2         0.4729525930E-03      0.7682197717E-02

    ------------------------------------------------
       NWT REQUIRED            6 OUTER ITERATIONS 
       AND A TOTAL OF          6 INNER ITERATIONS.
    ------------------------------------------------

 OUTPUT CONTROL FOR STRESS PERIOD    1   TIME STEP  425
    SAVE HEAD FOR ALL LAYERS
 SOLVING FOR ZETA FOR LAYER     1 ZONE     2

     616 UPPER PART EQS.       588 LOWER PART EQS.    BAND WIDTH + 1 =   45
 STRESS PERIOD=  1 TIMESTEP=425 LAYER=  1 ZONE=  2 ACTIVE CELLS= 1204 NUMBER OF EQUATIONS=    1204
 SOLVING FOR ZETA FOR LAYER     2 ZONE     2

     553 UPPER PART EQS.       556 LOWER PART EQS.    BAND WIDTH + 1 =   32
 STRESS PERIOD=  1 TIMESTEP=425 LAYER=  2 ZONE=  2 ACTIVE CELLS= 1109 NUMBER OF EQUATIONS=    1109
 UBUDSV SAVING "      ZETASRF  1" ON UNIT 55 AT TIME STEP425, STRESS PERIOD    1

 HEAD WILL BE SAVED ON UNIT   51 AT END OF TIME STEP  425, STRESS PERIOD    1
 
 SOLVING FOR HEAD 
                                                   Max.-Head-Change                         Max.-Flux-Residual
  Residual-Control   Outer-Iter.   Inner-Iter.     Column Row Layer    Maximum-Head-Change  Column Row Layer    Maximum-Flux-Residual          L2-NORM 
          0                 1           1            32   54     1      -0.6518812937E-03       8   28    1         0.6045911291E+00      0.4459524750E+01
          0                 2           1            32   49     1       0.5376352327E-04      34   51    1         0.1032853814E-01      0.8829345329E-01
          0                 3           1            33   47     2       0.5452576937E-04      37   48    1         0.2941351152E-02      0.3213710441E-01
          0                 4           1            33   43     2       0.2452314375E-04      27   46    1         0.1510188095E-02      0.2206284417E-01
          0                 5           1            31   41     2       0.2741647007E-04      26   47    1         0.1218421211E-02      0.1804102369E-01
          0                 6           1            31   39     2       0.1549628758E-04      27   46    1         0.8342896106E-03      0.1571142823E-01
          0                 7           1            31   37     2       0.1936056472E-04      26   47    1         0.7416033053E-03      0.1380857219E-01
          0                 8           1            31   37     2       0.1187347251E-04      45   32    1         0.6310086183E-03      0.1249674316E-01
          0                 9           1            31   35     2       0.1420979323E-04      18   42    2         0.5444141399E-03      0.1108266304E-01
          0                10           1            31   35     2       0.9715191602E-05      45   32    1         0.5426454673E-03      0.1010868022E-01

    ------------------------------------------------
       NWT REQUIRED           10 OUTER ITERATIONS 
       AND A TOTAL OF         10 INNER ITERATIONS.
    ------------------------------------------------

 OUTPUT CONTROL FOR STRESS PERIOD    1   TIME STEP  426
    SAVE HEAD FOR ALL LAYERS
 SOLVING FOR ZETA FOR LAYER     1 ZONE     2

     586 UPPER PART EQS.       594 LOWER PART EQS.    BAND WIDTH + 1 =   25
 STRESS PERIOD=  1 TIMESTEP=426 LAYER=  1 ZONE=  2 ACTIVE CELLS= 1180 NUMBER OF EQUATIONS=    1180
 SOLVING FOR ZETA FOR LAYER     2 ZONE     2

     553 UPPER PART EQS.       556 LOWER PART EQS.    BAND WIDTH + 1 =   32
 STRESS PERIOD=  1 TIMESTEP=426 LAYER=  2 ZONE=  2 ACTIVE CELLS= 1109 NUMBER OF EQUATIONS=    1109
 UBUDSV SAVING "      ZETASRF  1" ON UNIT 55 AT TIME STEP426, STRESS PERIOD    1

 HEAD WILL BE SAVED ON UNIT   51 AT END OF TIME STEP  426, STRESS PERIOD    1
 
 SOLVING FOR HEAD 
                                                   Max.-Head-Change                         Max.-Flux-Residual
  Residual-Control   Outer-Iter.   Inner-Iter.     Column Row Layer    Maximum-Head-Change  Column Row Layer    Maximum-Flux-Residual          L2-NORM 
          0                 1           1            31   54     1       0.7271371404E-03      36    8    1         0.5754552180E+00      0.4545678276E+01
          0                 2           1            34   50     2      -0.7882189748E-04      34   50    2        -0.1088239824E-01      0.8950279008E-01
          0                 3           1            31   49     2      -0.5095844028E-04      33   48    1        -0.3132791456E-02      0.3343122652E-01
          0                 4           1            22   28     2       0.1465617309E-04      30   47    1        -0.1511705979E-02      0.1994532371E-01
          0                 5           1            25   28     1       0.1776445777E-04      33   48    1        -0.8079968543E-03      0.1424538510E-01
          0                 6           1            28   28     2       0.1071592245E-04      28   28    2         0.5984706556E-03      0.1111839588E-01
          0                 7           1            29   27     2       0.1341948870E-04      30   26    2         0.5172854660E-03      0.9026144251E-02
          0                 8           1            29   27     2       0.7752460854E-05      29   27    2         0.4212236956E-03      0.7688806579E-02

    ------------------------------------------------
       NWT REQUIRED            8 OUTER ITERATIONS 
       AND A TOTAL OF          8 INNER ITERATIONS.
    ------------------------------------------------

 OUTPUT CONTROL FOR STRESS PERIOD    1   TIME STEP  427
    SAVE HEAD FOR ALL LAYERS
 SOLVING FOR ZETA FOR LAYER     1 ZONE     2

     597 UPPER PART EQS.       598 LOWER PART EQS.    BAND WIDTH + 1 =   27
 STRESS PERIOD=  1 TIMESTEP=427 LAYER=  1 ZONE=  2 ACTIVE CELLS= 1195 NUMBER OF EQUATIONS=    1195
 SOLVING FOR ZETA FOR LAYER     2 ZONE     2

     553 UPPER PART EQS.       554 LOWER PART EQS.    BAND WIDTH + 1 =   32
 STRESS PERIOD=  1 TIMESTEP=427 LAYER=  2 ZONE=  2 ACTIVE CELLS= 1107 NUMBER OF EQUATIONS=    1107
 UBUDSV SAVING "      ZETASRF  1" ON UNIT 55 AT TIME STEP427, STRESS PERIOD    1

 HEAD WILL BE SAVED ON UNIT   51 AT END OF TIME STEP  427, STRESS PERIOD    1
 
 SOLVING FOR HEAD 
                                                   Max.-Head-Change                         Max.-Flux-Residual
  Residual-Control   Outer-Iter.   Inner-Iter.     Column Row Layer    Maximum-Head-Change  Column Row Layer    Maximum-Flux-Residual          L2-NORM 
          0                 1           1            33    8     1       0.6964047292E-03      27   54    1         0.5933380411E+00      0.4655869287E+01
          0                 2           1            33   11     2      -0.3892240657E-04      35   48    1         0.7387465436E-02      0.7545887615E-01
          0                 3           1            33   11     2      -0.2639290533E-04      33   11    2        -0.1873911055E-02      0.2243105316E-01
          0                 4           1            34   38     2       0.1192781264E-04      42   26    2         0.7236189750E-03      0.1379748429E-01
          0                 5           1            33   33     2       0.1483085267E-04      34   34    2         0.5947287611E-03      0.1102720327E-01
          0                 6           1            31   33     2       0.1073691093E-04      32   32    2         0.5322838584E-03      0.9581117850E-02
          0                 7           1            32   33     1       0.1152829252E-04      31   33    2         0.4621393880E-03      0.8443257642E-02
          0                 8           1            31   33     2       0.8344079452E-05      31   33    2         0.3945379220E-03      0.7602625001E-02

    ------------------------------------------------
       NWT REQUIRED            8 OUTER ITERATIONS 
       AND A TOTAL OF          8 INNER ITERATIONS.
    ------------------------------------------------

 OUTPUT CONTROL FOR STRESS PERIOD    1   TIME STEP  428
    SAVE HEAD FOR ALL LAYERS
 SOLVING FOR ZETA FOR LAYER     1 ZONE     2

     610 UPPER PART EQS.       584 LOWER PART EQS.    BAND WIDTH + 1 =   44
 STRESS PERIOD=  1 TIMESTEP=428 LAYER=  1 ZONE=  2 ACTIVE CELLS= 1194 NUMBER OF EQUATIONS=    1194
 SOLVING FOR ZETA FOR LAYER     2 ZONE     2

     553 UPPER PART EQS.       556 LOWER PART EQS.    BAND WIDTH + 1 =   32
 STRESS PERIOD=  1 TIMESTEP=428 LAYER=  2 ZONE=  2 ACTIVE CELLS= 1109 NUMBER OF EQUATIONS=    1109
 UBUDSV SAVING "      ZETASRF  1" ON UNIT 55 AT TIME STEP428, STRESS PERIOD    1

 HEAD WILL BE SAVED ON UNIT   51 AT END OF TIME STEP  428, STRESS PERIOD    1
 
 SOLVING FOR HEAD 
                                                   Max.-Head-Change                         Max.-Flux-Residual
  Residual-Control   Outer-Iter.   Inner-Iter.     Column Row Layer    Maximum-Head-Change  Column Row Layer    Maximum-Flux-Residual          L2-NORM 
          0                 1           1             8   30     1       0.7250994123E-03      35    8    1         0.5709000834E+00      0.4589605854E+01
          0                 2           1            11   27     2      -0.3461457711E-04      50   23    1         0.8955999696E-02      0.7878793377E-01
          0                 3           1            41   37     2       0.2376794751E-04      12   32    2        -0.1508442113E-02      0.2421416271E-01
          0                 4           1            37   37     2       0.1530574568E-04      37   39    2         0.8438614429E-03      0.1580575780E-01
          0                 5           1            34   34     2       0.1955560791E-04      33   35    2         0.7272954821E-03      0.1329239766E-01
          0                 6           1            34   34     2       0.1223834508E-04      43   29    2         0.6365343991E-03      0.1176794042E-01
          0                 7           1            33   33     2       0.1512658082E-04      46   30    2         0.5654372735E-03      0.1041818957E-01
          0                 8           1            34   34     2       0.9363613228E-05      43   29    2         0.5280197646E-03      0.9401669454E-02

    ------------------------------------------------
       NWT REQUIRED            8 OUTER ITERATIONS 
       AND A TOTAL OF          8 INNER ITERATIONS.
    ------------------------------------------------

 OUTPUT CONTROL FOR STRESS PERIOD    1   TIME STEP  429
    SAVE HEAD FOR ALL LAYERS
 SOLVING FOR ZETA FOR LAYER     1 ZONE     2

     593 UPPER PART EQS.       593 LOWER PART EQS.    BAND WIDTH + 1 =   27
 STRESS PERIOD=  1 TIMESTEP=429 LAYER=  1 ZONE=  2 ACTIVE CELLS= 1186 NUMBER OF EQUATIONS=    1186
 SOLVING FOR ZETA FOR LAYER     2 ZONE     2

     553 UPPER PART EQS.       556 LOWER PART EQS.    BAND WIDTH + 1 =   32
 STRESS PERIOD=  1 TIMESTEP=429 LAYER=  2 ZONE=  2 ACTIVE CELLS= 1109 NUMBER OF EQUATIONS=    1109
 UBUDSV SAVING "      ZETASRF  1" ON UNIT 55 AT TIME STEP429, STRESS PERIOD    1

 HEAD WILL BE SAVED ON UNIT   51 AT END OF TIME STEP  429, STRESS PERIOD    1
 
 SOLVING FOR HEAD 
                                                   Max.-Head-Change                         Max.-Flux-Residual
  Residual-Control   Outer-Iter.   Inner-Iter.     Column Row Layer    Maximum-Head-Change  Column Row Layer    Maximum-Flux-Residual          L2-NORM 
          0                 1           1             8   33     1       0.6189238247E-03       8   33    1         0.5775701384E+00      0.4477997537E+01
          0                 2           1            32   49     1       0.5104126563E-04      34   51    1         0.1006889149E-01      0.8403031297E-01
          0                 3           1            31   47     2       0.3833833945E-04      32   48    2         0.2362194259E-02      0.2905792037E-01
          0                 4           1            32   42     2       0.1885006594E-04      36   45    1         0.1296362592E-02      0.1785097419E-01
          0                 5           1            31   41     2       0.2016350089E-04      31   41    2         0.8346556007E-03      0.1351170949E-01
          0                 6           1            30   38     2       0.1211097048E-04      30   38    2         0.6377828006E-03      0.1114887783E-01
          0                 7           1            29   35     2       0.1411311363E-04      30   34    2         0.5384371161E-03      0.9570167542E-02
          0                 8           1            29   35     2       0.9226421436E-05      29   35    2         0.4493850664E-03      0.8475907630E-02

    ------------------------------------------------
       NWT REQUIRED            8 OUTER ITERATIONS 
       AND A TOTAL OF          8 INNER ITERATIONS.
    ------------------------------------------------

 OUTPUT CONTROL FOR STRESS PERIOD    1   TIME STEP  430
    SAVE HEAD FOR ALL LAYERS
 SOLVING FOR ZETA FOR LAYER     1 ZONE     2

     603 UPPER PART EQS.       596 LOWER PART EQS.    BAND WIDTH + 1 =   30
 STRESS PERIOD=  1 TIMESTEP=430 LAYER=  1 ZONE=  2 ACTIVE CELLS= 1199 NUMBER OF EQUATIONS=    1199
 SOLVING FOR ZETA FOR LAYER     2 ZONE     2

     553 UPPER PART EQS.       556 LOWER PART EQS.    BAND WIDTH + 1 =   32
 STRESS PERIOD=  1 TIMESTEP=430 LAYER=  2 ZONE=  2 ACTIVE CELLS= 1109 NUMBER OF EQUATIONS=    1109
 UBUDSV SAVING "      ZETASRF  1" ON UNIT 55 AT TIME STEP430, STRESS PERIOD    1

 HEAD WILL BE SAVED ON UNIT   51 AT END OF TIME STEP  430, STRESS PERIOD    1
 
 SOLVING FOR HEAD 
                                                   Max.-Head-Change                         Max.-Flux-Residual
  Residual-Control   Outer-Iter.   Inner-Iter.     Column Row Layer    Maximum-Head-Change  Column Row Layer    Maximum-Flux-Residual          L2-NORM 
          0                 1           1            31   54     1       0.7319935355E-03       8   28    1         0.5885786280E+00      0.4266430774E+01
          0                 2           1            34   50     2      -0.7795347889E-04      34   50    2        -0.1119715472E-01      0.8844952360E-01
          0                 3           1            30   50     2      -0.4535686566E-04      31   49    2        -0.2908630553E-02      0.3113061782E-01
          0                 4           1            34   17     1       0.1761390205E-04      38   47    1        -0.1357063677E-02      0.1974632656E-01
          0                 5           1            32   21     1       0.2073915165E-04      31   18    1         0.8295717666E-03      0.1530478000E-01
          0                 6           1            33   24     1       0.1290235911E-04      41   23    2         0.7022155770E-03      0.1281000669E-01
          0                 7           1            31   25     2       0.1605979327E-04      32   24    2         0.6025037316E-03      0.1089560295E-01
          0                 8           1            31   25     2       0.9571261792E-05      41   23    2         0.5461421932E-03      0.9567376109E-02

    ------------------------------------------------
       NWT REQUIRED            8 OUTER ITERATIONS 
       AND A TOTAL OF          8 INNER ITERATIONS.
    ------------------------------------------------

 OUTPUT CONTROL FOR STRESS PERIOD    1   TIME STEP  431
    SAVE HEAD FOR ALL LAYERS
 SOLVING FOR ZETA FOR LAYER     1 ZONE     2

     602 UPPER PART EQS.       594 LOWER PART EQS.    BAND WIDTH + 1 =   29
 STRESS PERIOD=  1 TIMESTEP=431 LAYER=  1 ZONE=  2 ACTIVE CELLS= 1196 NUMBER OF EQUATIONS=    1196
 SOLVING FOR ZETA FOR LAYER     2 ZONE     2

     553 UPPER PART EQS.       556 LOWER PART EQS.    BAND WIDTH + 1 =   32
 STRESS PERIOD=  1 TIMESTEP=431 LAYER=  2 ZONE=  2 ACTIVE CELLS= 1109 NUMBER OF EQUATIONS=    1109
 UBUDSV SAVING "      ZETASRF  1" ON UNIT 55 AT TIME STEP431, STRESS PERIOD    1

 HEAD WILL BE SAVED ON UNIT   51 AT END OF TIME STEP  431, STRESS PERIOD    1
 
 SOLVING FOR HEAD 
                                                   Max.-Head-Change                         Max.-Flux-Residual
  Residual-Control   Outer-Iter.   Inner-Iter.     Column Row Layer    Maximum-Head-Change  Column Row Layer    Maximum-Flux-Residual          L2-NORM 
          0                 1           1            32    8     1       0.7241290049E-03       8   38    1         0.5592858667E+00      0.4404280039E+01
          0                 2           1            33   11     2      -0.6072361002E-04      28    9    1         0.8321210667E-02      0.8870632357E-01
          0                 3           1            32   12     2      -0.3925872236E-04      36   13    1        -0.2926208228E-02      0.3112431338E-01
          0                 4           1            42   32     2       0.1964533809E-04      43   33    2         0.1229787554E-02      0.1964283372E-01
          0                 5           1            39   33     2       0.2087687416E-04      46   30    2         0.9207636710E-03      0.1560961576E-01
          0                 6           1            35   34     1       0.1365357395E-04      43   33    2         0.7973016982E-03      0.1321395439E-01
          0                 7           1            34   34     2       0.1656215279E-04      39   33    2         0.6286172550E-03      0.1147608182E-01
          0                 8           1            34   34     2       0.1020135769E-04      43   33    2         0.5938022341E-03      0.1014224829E-01
          0                 9           1            34   35     1       0.1282359331E-04      40   36    2         0.4801620933E-03      0.8966837371E-02
          0                10           1            33   35     2       0.7772716087E-05      43   33    2         0.4669157983E-03      0.8042635157E-02

    ------------------------------------------------
       NWT REQUIRED           10 OUTER ITERATIONS 
       AND A TOTAL OF         10 INNER ITERATIONS.
    ------------------------------------------------

 OUTPUT CONTROL FOR STRESS PERIOD    1   TIME STEP  432
    SAVE HEAD FOR ALL LAYERS
 SOLVING FOR ZETA FOR LAYER     1 ZONE     2

     597 UPPER PART EQS.       597 LOWER PART EQS.    BAND WIDTH + 1 =   27
 STRESS PERIOD=  1 TIMESTEP=432 LAYER=  1 ZONE=  2 ACTIVE CELLS= 1194 NUMBER OF EQUATIONS=    1194
 SOLVING FOR ZETA FOR LAYER     2 ZONE     2

     553 UPPER PART EQS.       556 LOWER PART EQS.    BAND WIDTH + 1 =   32
 STRESS PERIOD=  1 TIMESTEP=432 LAYER=  2 ZONE=  2 ACTIVE CELLS= 1109 NUMBER OF EQUATIONS=    1109
 UBUDSV SAVING "      ZETASRF  1" ON UNIT 55 AT TIME STEP432, STRESS PERIOD    1

 HEAD WILL BE SAVED ON UNIT   51 AT END OF TIME STEP  432, STRESS PERIOD    1
 
 SOLVING FOR HEAD 
                                                   Max.-Head-Change                         Max.-Flux-Residual
  Residual-Control   Outer-Iter.   Inner-Iter.     Column Row Layer    Maximum-Head-Change  Column Row Layer    Maximum-Flux-Residual          L2-NORM 
          0                 1           1             8   31     1       0.7354578997E-03      27   54    1         0.5635879674E+00      0.4564529685E+01
          0                 2           1            50   32     2      -0.4503566601E-04       5   32    1         0.7834064131E-02      0.7367930292E-01
          0                 3           1            50   30     2      -0.2828107685E-04      52   33    1        -0.1911825203E-02      0.2402322125E-01
          0                 4           1            28   25     1       0.1262800326E-04      26   22    2         0.7233290069E-03      0.1422359772E-01
          0                 5           1            30   30     2       0.1615011800E-04      30   26    2         0.6282068679E-03      0.1100924341E-01
          0                 6           1            29   30     1       0.1004870661E-04      28   28    2         0.5256910794E-03      0.9332820505E-02
          0                 7           1            29   29     2       0.1236048113E-04      30   30    2         0.4547979580E-03      0.8133173301E-02
          0                 8           1            28   29     1       0.7643898260E-05      17   31    2         0.3868583510E-03      0.7291991763E-02

    ------------------------------------------------
       NWT REQUIRED            8 OUTER ITERATIONS 
       AND A TOTAL OF          8 INNER ITERATIONS.
    ------------------------------------------------

 OUTPUT CONTROL FOR STRESS PERIOD    1   TIME STEP  433
    SAVE HEAD FOR ALL LAYERS
 SOLVING FOR ZETA FOR LAYER     1 ZONE     2

     616 UPPER PART EQS.       588 LOWER PART EQS.    BAND WIDTH + 1 =   35
 STRESS PERIOD=  1 TIMESTEP=433 LAYER=  1 ZONE=  2 ACTIVE CELLS= 1204 NUMBER OF EQUATIONS=    1204
 SOLVING FOR ZETA FOR LAYER     2 ZONE     2

     555 UPPER PART EQS.       556 LOWER PART EQS.    BAND WIDTH + 1 =   32
 STRESS PERIOD=  1 TIMESTEP=433 LAYER=  2 ZONE=  2 ACTIVE CELLS= 1111 NUMBER OF EQUATIONS=    1111
 UBUDSV SAVING "      ZETASRF  1" ON UNIT 55 AT TIME STEP433, STRESS PERIOD    1

 HEAD WILL BE SAVED ON UNIT   51 AT END OF TIME STEP  433, STRESS PERIOD    1
 
 SOLVING FOR HEAD 
                                                   Max.-Head-Change                         Max.-Flux-Residual
  Residual-Control   Outer-Iter.   Inner-Iter.     Column Row Layer    Maximum-Head-Change  Column Row Layer    Maximum-Flux-Residual          L2-NORM 
          0                 1           1             8   36     1       0.6809021170E-03       8   27    1         0.5774514533E+00      0.4629267730E+01
          0                 2           1            32   49     1       0.4278776362E-04      34   51    1         0.8002866661E-02      0.8062378719E-01
          0                 3           1            32   46     2       0.3933000989E-04      32   48    2         0.2233385136E-02      0.2528047114E-01
          0                 4           1            31   43     2       0.1820903535E-04      31   45    2         0.1096341515E-02      0.1619300061E-01
          0                 5           1            32   40     2       0.2008669814E-04      31   41    2         0.7959687516E-03      0.1306340296E-01
          0                 6           1            32   38     2       0.1218388655E-04      33   39    2         0.6221975602E-03      0.1127538360E-01
          0                 7           1            32   36     2       0.1452225794E-04      32   36    2         0.5440159971E-03      0.9910727674E-02
          0                 8           1            32   36     2       0.9361846786E-05      33   35    2         0.4601422565E-03      0.8887805485E-02

    ------------------------------------------------
       NWT REQUIRED            8 OUTER ITERATIONS 
       AND A TOTAL OF          8 INNER ITERATIONS.
    ------------------------------------------------

 OUTPUT CONTROL FOR STRESS PERIOD    1   TIME STEP  434
    SAVE HEAD FOR ALL LAYERS
 SOLVING FOR ZETA FOR LAYER     1 ZONE     2

     611 UPPER PART EQS.       586 LOWER PART EQS.    BAND WIDTH + 1 =   42
 STRESS PERIOD=  1 TIMESTEP=434 LAYER=  1 ZONE=  2 ACTIVE CELLS= 1197 NUMBER OF EQUATIONS=    1197
 SOLVING FOR ZETA FOR LAYER     2 ZONE     2

     555 UPPER PART EQS.       556 LOWER PART EQS.    BAND WIDTH + 1 =   32
 STRESS PERIOD=  1 TIMESTEP=434 LAYER=  2 ZONE=  2 ACTIVE CELLS= 1111 NUMBER OF EQUATIONS=    1111
 UBUDSV SAVING "      ZETASRF  1" ON UNIT 55 AT TIME STEP434, STRESS PERIOD    1

 HEAD WILL BE SAVED ON UNIT   51 AT END OF TIME STEP  434, STRESS PERIOD    1
 
 SOLVING FOR HEAD 
                                                   Max.-Head-Change                         Max.-Flux-Residual
  Residual-Control   Outer-Iter.   Inner-Iter.     Column Row Layer    Maximum-Head-Change  Column Row Layer    Maximum-Flux-Residual          L2-NORM 
          0                 1           1            31   54     1       0.7408709114E-03       8   33    1         0.5880387135E+00      0.4113268876E+01
          0                 2           1            32   50     2      -0.7021714704E-04      34   50    2        -0.1047442299E-01      0.8412448705E-01
          0                 3           1            30   50     2      -0.3778222077E-04      35   49    2        -0.2351317786E-02      0.2882036265E-01
          0                 4           1            32   20     2       0.1590767942E-04      37   15    2         0.1046680529E-02      0.1758775208E-01
          0                 5           1            30   24     2       0.1914518746E-04      30   22    2         0.7615597600E-03      0.1345434325E-01
          0                 6           1            30   25     1       0.1208202067E-04      28   24    2         0.6284301223E-03      0.1113655698E-01
          0                 7           1            30   25     1       0.1439781484E-04      31   25    2         0.5542733309E-03      0.9446136579E-02
          0                 8           1            29   25     2       0.8838564023E-05      28   24    2         0.4536612245E-03      0.8262215893E-02

    ------------------------------------------------
       NWT REQUIRED            8 OUTER ITERATIONS 
       AND A TOTAL OF          8 INNER ITERATIONS.
    ------------------------------------------------

 OUTPUT CONTROL FOR STRESS PERIOD    1   TIME STEP  435
    SAVE HEAD FOR ALL LAYERS
 SOLVING FOR ZETA FOR LAYER     1 ZONE     2

     590 UPPER PART EQS.       610 LOWER PART EQS.    BAND WIDTH + 1 =   31
 STRESS PERIOD=  1 TIMESTEP=435 LAYER=  1 ZONE=  2 ACTIVE CELLS= 1200 NUMBER OF EQUATIONS=    1200
 SOLVING FOR ZETA FOR LAYER     2 ZONE     2

     557 UPPER PART EQS.       556 LOWER PART EQS.    BAND WIDTH + 1 =   32
 STRESS PERIOD=  1 TIMESTEP=435 LAYER=  2 ZONE=  2 ACTIVE CELLS= 1113 NUMBER OF EQUATIONS=    1113
 UBUDSV SAVING "      ZETASRF  1" ON UNIT 55 AT TIME STEP435, STRESS PERIOD    1

 HEAD WILL BE SAVED ON UNIT   51 AT END OF TIME STEP  435, STRESS PERIOD    1
 
 SOLVING FOR HEAD 
                                                   Max.-Head-Change                         Max.-Flux-Residual
  Residual-Control   Outer-Iter.   Inner-Iter.     Column Row Layer    Maximum-Head-Change  Column Row Layer    Maximum-Flux-Residual          L2-NORM 
          0                 1           1            31    8     1       0.7269919738E-03      26   54    1         0.5665241425E+00      0.4048070248E+01
          0                 2           1            29   11     2      -0.3831289825E-04      28    9    1         0.7707901819E-02      0.6920476906E-01
          0                 3           1            32   12     2      -0.2287367620E-04      33   12    1        -0.1528853072E-02      0.2392569890E-01
          0                 4           1            42   28     2       0.1330026556E-04      42   26    2         0.9024832087E-03      0.1531488374E-01
          0                 5           1            37   33     2       0.1644050218E-04      46   34    2         0.6751513203E-03      0.1250509707E-01
          0                 6           1            36   33     1       0.1106294339E-04      43   29    2         0.5682528260E-03      0.1088208037E-01
          0                 7           1            34   34     2       0.1364261039E-04      35   33    2         0.5074537586E-03      0.9586255755E-02
          0                 8           1            34   34     2       0.8440144201E-05      26   46    2         0.4376883392E-03      0.8586959847E-02

    ------------------------------------------------
       NWT REQUIRED            8 OUTER ITERATIONS 
       AND A TOTAL OF          8 INNER ITERATIONS.
    ------------------------------------------------

 OUTPUT CONTROL FOR STRESS PERIOD    1   TIME STEP  436
    SAVE HEAD FOR ALL LAYERS
 SOLVING FOR ZETA FOR LAYER     1 ZONE     2

     602 UPPER PART EQS.       592 LOWER PART EQS.    BAND WIDTH + 1 =   30
 STRESS PERIOD=  1 TIMESTEP=436 LAYER=  1 ZONE=  2 ACTIVE CELLS= 1194 NUMBER OF EQUATIONS=    1194
 SOLVING FOR ZETA FOR LAYER     2 ZONE     2

     561 UPPER PART EQS.       556 LOWER PART EQS.    BAND WIDTH + 1 =   32
 STRESS PERIOD=  1 TIMESTEP=436 LAYER=  2 ZONE=  2 ACTIVE CELLS= 1117 NUMBER OF EQUATIONS=    1117
 UBUDSV SAVING "      ZETASRF  1" ON UNIT 55 AT TIME STEP436, STRESS PERIOD    1

 HEAD WILL BE SAVED ON UNIT   51 AT END OF TIME STEP  436, STRESS PERIOD    1
 
 SOLVING FOR HEAD 
                                                   Max.-Head-Change                         Max.-Flux-Residual
  Residual-Control   Outer-Iter.   Inner-Iter.     Column Row Layer    Maximum-Head-Change  Column Row Layer    Maximum-Flux-Residual          L2-NORM 
          0                 1           1            34    8     1       0.6254594798E-03      28    8    1         0.5859057635E+00      0.4429456302E+01
          0                 2           1            49   32     1       0.4069923140E-04      50   23    1        -0.8445407790E-02      0.7754099022E-01
          0                 3           1            46   32     2       0.2751002350E-04      47   34    1         0.1964922280E-02      0.2630282604E-01
          0                 4           1            21   31     2       0.1447588982E-04      17   23    2         0.1017158078E-02      0.1684620205E-01
          0                 5           1            30   34     2       0.1843785920E-04      17   23    2         0.7119883433E-03      0.1378292849E-01
          0                 6           1            29   32     1       0.1252050251E-04      31   33    2         0.6376969104E-03      0.1209813060E-01
          0                 7           1            30   32     2       0.1525206381E-04      31   33    2         0.5670529065E-03      0.1073460087E-01
          0                 8           1            29   32     1       0.9744568812E-05      29   31    2         0.4854536659E-03      0.9712841959E-02

    ------------------------------------------------
       NWT REQUIRED            8 OUTER ITERATIONS 
       AND A TOTAL OF          8 INNER ITERATIONS.
    ------------------------------------------------

 OUTPUT CONTROL FOR STRESS PERIOD    1   TIME STEP  437
    SAVE HEAD FOR ALL LAYERS
 SOLVING FOR ZETA FOR LAYER     1 ZONE     2

     609 UPPER PART EQS.       590 LOWER PART EQS.    BAND WIDTH + 1 =   33
 STRESS PERIOD=  1 TIMESTEP=437 LAYER=  1 ZONE=  2 ACTIVE CELLS= 1199 NUMBER OF EQUATIONS=    1199
 SOLVING FOR ZETA FOR LAYER     2 ZONE     2

     561 UPPER PART EQS.       556 LOWER PART EQS.    BAND WIDTH + 1 =   32
 STRESS PERIOD=  1 TIMESTEP=437 LAYER=  2 ZONE=  2 ACTIVE CELLS= 1117 NUMBER OF EQUATIONS=    1117
 UBUDSV SAVING "      ZETASRF  1" ON UNIT 55 AT TIME STEP437, STRESS PERIOD    1

 HEAD WILL BE SAVED ON UNIT   51 AT END OF TIME STEP  437, STRESS PERIOD    1
 
 SOLVING FOR HEAD 
                                                   Max.-Head-Change                         Max.-Flux-Residual
  Residual-Control   Outer-Iter.   Inner-Iter.     Column Row Layer    Maximum-Head-Change  Column Row Layer    Maximum-Flux-Residual          L2-NORM 
          0                 1           1             8   31     1       0.7393529838E-03      27   54    1         0.5551400915E+00      0.4067187721E+01
          0                 2           1            10   32     2      -0.4360492762E-04      50   35    1        -0.8401884401E-02      0.7622151877E-01
          0                 3           1            12   32     2      -0.2627802259E-04      52   33    1        -0.1982565364E-02      0.2527651572E-01
          0                 4           1            33   26     1       0.1339877115E-04      50   35    1        -0.9035029323E-03      0.1436914521E-01
          0                 5           1            32   30     2       0.1670658688E-04      32   28    2         0.6782040181E-03      0.1090502757E-01
          0                 6           1            31   31     2       0.1039999241E-04      31   29    2         0.5381004073E-03      0.9144261958E-02
          0                 7           1            32   32     2       0.1218553743E-04      33   31    2         0.4689914529E-03      0.8009631958E-02
          0                 8           1            31   31     2       0.7796347515E-05      32   32    2         0.3759887353E-03      0.7196822811E-02

    ------------------------------------------------
       NWT REQUIRED            8 OUTER ITERATIONS 
       AND A TOTAL OF          8 INNER ITERATIONS.
    ------------------------------------------------

 OUTPUT CONTROL FOR STRESS PERIOD    1   TIME STEP  438
    SAVE HEAD FOR ALL LAYERS
 SOLVING FOR ZETA FOR LAYER     1 ZONE     2

     599 UPPER PART EQS.       603 LOWER PART EQS.    BAND WIDTH + 1 =   26
 STRESS PERIOD=  1 TIMESTEP=438 LAYER=  1 ZONE=  2 ACTIVE CELLS= 1202 NUMBER OF EQUATIONS=    1202
 SOLVING FOR ZETA FOR LAYER     2 ZONE     2

     561 UPPER PART EQS.       556 LOWER PART EQS.    BAND WIDTH + 1 =   32
 STRESS PERIOD=  1 TIMESTEP=438 LAYER=  2 ZONE=  2 ACTIVE CELLS= 1117 NUMBER OF EQUATIONS=    1117
 UBUDSV SAVING "      ZETASRF  1" ON UNIT 55 AT TIME STEP438, STRESS PERIOD    1

 HEAD WILL BE SAVED ON UNIT   51 AT END OF TIME STEP  438, STRESS PERIOD    1
 
 SOLVING FOR HEAD 
                                                   Max.-Head-Change                         Max.-Flux-Residual
  Residual-Control   Outer-Iter.   Inner-Iter.     Column Row Layer    Maximum-Head-Change  Column Row Layer    Maximum-Flux-Residual          L2-NORM 
          0                 1           1            54   37     1       0.5896527895E-03      37    8    1         0.5567283919E+00      0.4227650637E+01
          0                 2           1            35   50     1       0.4582123042E-04      34   51    1         0.9781025998E-02      0.7253376068E-01
          0                 3           1            32   48     2       0.3902629688E-04      32   48    2         0.2515161843E-02      0.2565348467E-01
          0                 4           1            31   43     2       0.1822909453E-04      33   43    2         0.1036691898E-02      0.1796837633E-01
          0                 5           1            30   40     2       0.2089647465E-04      34   47    1         0.8175703232E-03      0.1514263316E-01
          0                 6           1            29   35     2       0.1293684421E-04      29   35    2         0.6509026542E-03      0.1340693992E-01
          0                 7           1            29   33     2       0.1686601389E-04      30   34    2         0.5877568412E-03      0.1189862118E-01
          0                 8           1            28   33     1       0.1003090475E-04      29   31    2         0.5092025187E-03      0.1074458059E-01
          0                 9           1            28   32     2       0.1331259633E-04      28   32    2         0.4672906354E-03      0.9552627923E-02
          0                10           1            29   32     1       0.7946590914E-05      16   40    2         0.4089220615E-03      0.8666830013E-02

    ------------------------------------------------
       NWT REQUIRED           10 OUTER ITERATIONS 
       AND A TOTAL OF         10 INNER ITERATIONS.
    ------------------------------------------------

 OUTPUT CONTROL FOR STRESS PERIOD    1   TIME STEP  439
    SAVE HEAD FOR ALL LAYERS
 SOLVING FOR ZETA FOR LAYER     1 ZONE     2

     600 UPPER PART EQS.       593 LOWER PART EQS.    BAND WIDTH + 1 =   26
 STRESS PERIOD=  1 TIMESTEP=439 LAYER=  1 ZONE=  2 ACTIVE CELLS= 1193 NUMBER OF EQUATIONS=    1193
 SOLVING FOR ZETA FOR LAYER     2 ZONE     2

     561 UPPER PART EQS.       556 LOWER PART EQS.    BAND WIDTH + 1 =   32
 STRESS PERIOD=  1 TIMESTEP=439 LAYER=  2 ZONE=  2 ACTIVE CELLS= 1117 NUMBER OF EQUATIONS=    1117
 UBUDSV SAVING "      ZETASRF  1" ON UNIT 55 AT TIME STEP439, STRESS PERIOD    1

 HEAD WILL BE SAVED ON UNIT   51 AT END OF TIME STEP  439, STRESS PERIOD    1
 
 SOLVING FOR HEAD 
                                                   Max.-Head-Change                         Max.-Flux-Residual
  Residual-Control   Outer-Iter.   Inner-Iter.     Column Row Layer    Maximum-Head-Change  Column Row Layer    Maximum-Flux-Residual          L2-NORM 
          0                 1           1            31   54     1       0.7462520929E-03       8   35    1         0.5732821471E+00      0.4461495789E+01
          0                 2           1            32   50     2      -0.6997133731E-04      34   50    2        -0.1048388588E-01      0.8556188176E-01
          0                 3           1            30   50     2      -0.4140599906E-04      31   49    2        -0.2639883342E-02      0.2737419101E-01
          0                 4           1            42   30     2       0.1420613669E-04      42   26    2         0.1004710605E-02      0.1601038631E-01
          0                 5           1            38   28     2       0.1729975412E-04      45   23    2         0.7488366002E-03      0.1187119536E-01
          0                 6           1            36   29     1       0.1019076357E-04      42   26    2         0.6613883822E-03      0.9688430259E-02
          0                 7           1            38   28     2       0.1368842484E-04      45   23    2         0.5517955585E-03      0.8186139030E-02
          0                 8           1            37   28     1       0.7264465183E-05      42   26    2         0.4823190889E-03      0.7172277345E-02

    ------------------------------------------------
       NWT REQUIRED            8 OUTER ITERATIONS 
       AND A TOTAL OF          8 INNER ITERATIONS.
    ------------------------------------------------

 OUTPUT CONTROL FOR STRESS PERIOD    1   TIME STEP  440
    SAVE HEAD FOR ALL LAYERS
 SOLVING FOR ZETA FOR LAYER     1 ZONE     2

     615 UPPER PART EQS.       581 LOWER PART EQS.    BAND WIDTH + 1 =   48
 STRESS PERIOD=  1 TIMESTEP=440 LAYER=  1 ZONE=  2 ACTIVE CELLS= 1196 NUMBER OF EQUATIONS=    1196
 SOLVING FOR ZETA FOR LAYER     2 ZONE     2

     561 UPPER PART EQS.       556 LOWER PART EQS.    BAND WIDTH + 1 =   32
 STRESS PERIOD=  1 TIMESTEP=440 LAYER=  2 ZONE=  2 ACTIVE CELLS= 1117 NUMBER OF EQUATIONS=    1117
 UBUDSV SAVING "      ZETASRF  1" ON UNIT 55 AT TIME STEP440, STRESS PERIOD    1

 HEAD WILL BE SAVED ON UNIT   51 AT END OF TIME STEP  440, STRESS PERIOD    1
 
 SOLVING FOR HEAD 
                                                   Max.-Head-Change                         Max.-Flux-Residual
  Residual-Control   Outer-Iter.   Inner-Iter.     Column Row Layer    Maximum-Head-Change  Column Row Layer    Maximum-Flux-Residual          L2-NORM 
          0                 1           1            31    8     1       0.7434181545E-03      54   29    1         0.5557537277E+00      0.3953633784E+01
          0                 2           1            29   11     2      -0.4277094509E-04      28    9    1         0.7849525582E-02      0.7526592359E-01
          0                 3           1            32   12     2      -0.2678167661E-04      31   14    1        -0.2052304610E-02      0.2477301484E-01
          0                 4           1            23   29     2       0.1265566133E-04      12   25    1         0.8981664926E-03      0.1412770531E-01
          0                 5           1            26   31     1       0.1476946197E-04      26   30    2         0.6064205187E-03      0.1023917644E-01
          0                 6           1            27   32     1       0.9495786857E-05      28   32    2         0.5122029708E-03      0.8197960038E-02

    ------------------------------------------------
       NWT REQUIRED            6 OUTER ITERATIONS 
       AND A TOTAL OF          6 INNER ITERATIONS.
    ------------------------------------------------

 OUTPUT CONTROL FOR STRESS PERIOD    1   TIME STEP  441
    SAVE HEAD FOR ALL LAYERS
 SOLVING FOR ZETA FOR LAYER     1 ZONE     2

     593 UPPER PART EQS.       615 LOWER PART EQS.    BAND WIDTH + 1 =   33
 STRESS PERIOD=  1 TIMESTEP=441 LAYER=  1 ZONE=  2 ACTIVE CELLS= 1208 NUMBER OF EQUATIONS=    1208
 SOLVING FOR ZETA FOR LAYER     2 ZONE     2

     561 UPPER PART EQS.       556 LOWER PART EQS.    BAND WIDTH + 1 =   32
 STRESS PERIOD=  1 TIMESTEP=441 LAYER=  2 ZONE=  2 ACTIVE CELLS= 1117 NUMBER OF EQUATIONS=    1117
 UBUDSV SAVING "      ZETASRF  1" ON UNIT 55 AT TIME STEP441, STRESS PERIOD    1

 HEAD WILL BE SAVED ON UNIT   51 AT END OF TIME STEP  441, STRESS PERIOD    1
 
 SOLVING FOR HEAD 
                                                   Max.-Head-Change                         Max.-Flux-Residual
  Residual-Control   Outer-Iter.   Inner-Iter.     Column Row Layer    Maximum-Head-Change  Column Row Layer    Maximum-Flux-Residual          L2-NORM 
          0                 1           1             8   28     1       0.6247023103E-03       8   33    1         0.5695035537E+00      0.3702779771E+01
          0                 2           1            11   25     2      -0.2540389280E-04       5   34    1         0.6013941531E-02      0.5701033462E-01
          0                 3           1            24   41     1       0.2314631944E-04      18   42    2         0.1158004506E-02      0.2153167860E-01
          0                 4           1            27   37     2       0.1489449882E-04      21   39    2         0.8013952387E-03      0.1582871257E-01
          0                 5           1            30   34     2       0.1805097779E-04      30   34    2         0.6736729517E-03      0.1383535630E-01
          0                 6           1            30   33     1       0.1249493541E-04      30   34    2         0.5999484931E-03      0.1242912566E-01
          0                 7           1            31   33     2       0.1428279751E-04      31   33    2         0.5446478282E-03      0.1112939506E-01
          0                 8           1            30   32     2       0.1003164935E-04      31   33    2         0.4788050049E-03      0.1006979312E-01
          0                 9           1            31   31     2       0.1114111670E-04      33   31    2         0.4332657668E-03      0.9036712398E-02
          0                10           1            30   32     2       0.8071247710E-05      43   25    2         0.3932259895E-03      0.8188843442E-02

    ------------------------------------------------
       NWT REQUIRED           10 OUTER ITERATIONS 
       AND A TOTAL OF         10 INNER ITERATIONS.
    ------------------------------------------------

 OUTPUT CONTROL FOR STRESS PERIOD    1   TIME STEP  442
    SAVE HEAD FOR ALL LAYERS
 SOLVING FOR ZETA FOR LAYER     1 ZONE     2

     604 UPPER PART EQS.       594 LOWER PART EQS.    BAND WIDTH + 1 =   30
 STRESS PERIOD=  1 TIMESTEP=442 LAYER=  1 ZONE=  2 ACTIVE CELLS= 1198 NUMBER OF EQUATIONS=    1198
 SOLVING FOR ZETA FOR LAYER     2 ZONE     2

     561 UPPER PART EQS.       556 LOWER PART EQS.    BAND WIDTH + 1 =   32
 STRESS PERIOD=  1 TIMESTEP=442 LAYER=  2 ZONE=  2 ACTIVE CELLS= 1117 NUMBER OF EQUATIONS=    1117
 UBUDSV SAVING "      ZETASRF  1" ON UNIT 55 AT TIME STEP442, STRESS PERIOD    1

 HEAD WILL BE SAVED ON UNIT   51 AT END OF TIME STEP  442, STRESS PERIOD    1
 
 SOLVING FOR HEAD 
                                                   Max.-Head-Change                         Max.-Flux-Residual
  Residual-Control   Outer-Iter.   Inner-Iter.     Column Row Layer    Maximum-Head-Change  Column Row Layer    Maximum-Flux-Residual          L2-NORM 
          0                 1           1             8   36     1       0.6427369903E-03      34    8    1         0.5566757067E+00      0.4516157531E+01
          0                 2           1            49   32     1       0.3957953743E-04      50   33    1         0.6874049009E-02      0.7668433621E-01
          0                 3           1            46   30     2       0.3247951326E-04      46   30    2         0.1737403977E-02      0.2492333293E-01
          0                 4           1            43   31     2       0.1548004622E-04      43   29    2         0.1067816598E-02      0.1528192487E-01
          0                 5           1            39   31     2       0.1739750859E-04      46   30    2         0.7364085166E-03      0.1173966264E-01
          0                 6           1            36   31     1       0.1030060399E-04      43   29    2         0.6490246971E-03      0.9900597262E-02
          0                 7           1            37   31     2       0.1302326654E-04      39   29    2         0.5060382581E-03      0.8602949494E-02
          0                 8           1            34   30     2       0.7926480977E-05      43   29    2         0.4679833720E-03      0.7699648629E-02

    ------------------------------------------------
       NWT REQUIRED            8 OUTER ITERATIONS 
       AND A TOTAL OF          8 INNER ITERATIONS.
    ------------------------------------------------

 OUTPUT CONTROL FOR STRESS PERIOD    1   TIME STEP  443
    SAVE HEAD FOR ALL LAYERS
 SOLVING FOR ZETA FOR LAYER     1 ZONE     2

     620 UPPER PART EQS.       594 LOWER PART EQS.    BAND WIDTH + 1 =   38
 STRESS PERIOD=  1 TIMESTEP=443 LAYER=  1 ZONE=  2 ACTIVE CELLS= 1214 NUMBER OF EQUATIONS=    1214
 SOLVING FOR ZETA FOR LAYER     2 ZONE     2

     561 UPPER PART EQS.       556 LOWER PART EQS.    BAND WIDTH + 1 =   32
 STRESS PERIOD=  1 TIMESTEP=443 LAYER=  2 ZONE=  2 ACTIVE CELLS= 1117 NUMBER OF EQUATIONS=    1117
 UBUDSV SAVING "      ZETASRF  1" ON UNIT 55 AT TIME STEP443, STRESS PERIOD    1

 HEAD WILL BE SAVED ON UNIT   51 AT END OF TIME STEP  443, STRESS PERIOD    1
 
 SOLVING FOR HEAD 
                                                   Max.-Head-Change                         Max.-Flux-Residual
  Residual-Control   Outer-Iter.   Inner-Iter.     Column Row Layer    Maximum-Head-Change  Column Row Layer    Maximum-Flux-Residual          L2-NORM 
          0                 1           1             8   31     1       0.7441503935E-03      28    8    1         0.5639703525E+00      0.3902427409E+01
          0                 2           1            51   29     2      -0.3029202268E-04       5   32    1         0.7950949447E-02      0.7486803195E-01
          0                 3           1            37   45     2       0.2882855072E-04      35   46    1         0.1696158359E-02      0.2580513078E-01
          0                 4           1            34   42     2       0.1752427974E-04      35   46    1         0.1058996156E-02      0.1741062603E-01
          0                 5           1            32   40     2       0.2027176358E-04      26   47    1         0.8808780475E-03      0.1444834970E-01
          0                 6           1            30   38     2       0.1325478879E-04      35   46    1         0.6627832959E-03      0.1270350267E-01
          0                 7           1            31   37     2       0.1497703125E-04      26   47    1         0.6014600771E-03      0.1121969721E-01
          0                 8           1            30   36     2       0.1030421508E-04      31   37    2         0.4971325219E-03      0.1012791154E-01
          0                 9           1            31   35     2       0.1120968762E-04      17   39    2         0.4695946043E-03      0.9020611830E-02
          0                10           1            30   34     2       0.8262826514E-05      30   34    2         0.3911643719E-03      0.8191671956E-02

    ------------------------------------------------
       NWT REQUIRED           10 OUTER ITERATIONS 
       AND A TOTAL OF         10 INNER ITERATIONS.
    ------------------------------------------------

 OUTPUT CONTROL FOR STRESS PERIOD    1   TIME STEP  444
    SAVE HEAD FOR ALL LAYERS
 SOLVING FOR ZETA FOR LAYER     1 ZONE     2

     603 UPPER PART EQS.       593 LOWER PART EQS.    BAND WIDTH + 1 =   33
 STRESS PERIOD=  1 TIMESTEP=444 LAYER=  1 ZONE=  2 ACTIVE CELLS= 1196 NUMBER OF EQUATIONS=    1196
 SOLVING FOR ZETA FOR LAYER     2 ZONE     2

     561 UPPER PART EQS.       556 LOWER PART EQS.    BAND WIDTH + 1 =   32
 STRESS PERIOD=  1 TIMESTEP=444 LAYER=  2 ZONE=  2 ACTIVE CELLS= 1117 NUMBER OF EQUATIONS=    1117
 UBUDSV SAVING "      ZETASRF  1" ON UNIT 55 AT TIME STEP444, STRESS PERIOD    1

 HEAD WILL BE SAVED ON UNIT   51 AT END OF TIME STEP  444, STRESS PERIOD    1
 
 SOLVING FOR HEAD 
                                                   Max.-Head-Change                         Max.-Flux-Residual
  Residual-Control   Outer-Iter.   Inner-Iter.     Column Row Layer    Maximum-Head-Change  Column Row Layer    Maximum-Flux-Residual          L2-NORM 
          0                 1           1            36   54     1       0.6975075525E-03      54   34    1         0.5671662027E+00      0.4362945586E+01
          0                 2           1            38   50     2      -0.3393868852E-04      36   53    1        -0.7049750180E-02      0.6914569704E-01
          0                 3           1            43   49     2      -0.1835708197E-04      36   52    2        -0.1579680218E-02      0.2102979110E-01
          0                 4           1            28   33     1       0.1090070586E-04      36   52    2         0.7279401906E-03      0.1215850821E-01
          0                 5           1            30   32     2       0.1407011974E-04      31   33    2         0.5629544761E-03      0.9050140000E-02
          0                 6           1            29   32     1       0.8630177964E-05      29   31    2         0.4625435494E-03      0.7424552070E-02

    ------------------------------------------------
       NWT REQUIRED            6 OUTER ITERATIONS 
       AND A TOTAL OF          6 INNER ITERATIONS.
    ------------------------------------------------

 OUTPUT CONTROL FOR STRESS PERIOD    1   TIME STEP  445
    SAVE HEAD FOR ALL LAYERS
 SOLVING FOR ZETA FOR LAYER     1 ZONE     2

     604 UPPER PART EQS.       601 LOWER PART EQS.    BAND WIDTH + 1 =   25
 STRESS PERIOD=  1 TIMESTEP=445 LAYER=  1 ZONE=  2 ACTIVE CELLS= 1205 NUMBER OF EQUATIONS=    1205
 SOLVING FOR ZETA FOR LAYER     2 ZONE     2

     561 UPPER PART EQS.       556 LOWER PART EQS.    BAND WIDTH + 1 =   32
 STRESS PERIOD=  1 TIMESTEP=445 LAYER=  2 ZONE=  2 ACTIVE CELLS= 1117 NUMBER OF EQUATIONS=    1117
 UBUDSV SAVING "      ZETASRF  1" ON UNIT 55 AT TIME STEP445, STRESS PERIOD    1

 HEAD WILL BE SAVED ON UNIT   51 AT END OF TIME STEP  445, STRESS PERIOD    1
 
 SOLVING FOR HEAD 
                                                   Max.-Head-Change                         Max.-Flux-Residual
  Residual-Control   Outer-Iter.   Inner-Iter.     Column Row Layer    Maximum-Head-Change  Column Row Layer    Maximum-Flux-Residual          L2-NORM 
          0                 1           1            31   54     1       0.7553833593E-03      24    8    1         0.5455506009E+00      0.3591461008E+01
          0                 2           1            30   50     2      -0.4930358097E-04      34   51    1        -0.8107623562E-02      0.6531473123E-01
          0                 3           1            29   51     2      -0.2831991197E-04      30   51    1        -0.1739319486E-02      0.2142083885E-01
          0                 4           1            33   24     1       0.1204352174E-04      36   17    1         0.7308977867E-03      0.1297925044E-01
          0                 5           1            32   27     1       0.1503687760E-04      31   25    2         0.5901947793E-03      0.9992497656E-02
          0                 6           1            32   28     2       0.9009517521E-05      33   27    2         0.4892055044E-03      0.8367915403E-02

    ------------------------------------------------
       NWT REQUIRED            6 OUTER ITERATIONS 
       AND A TOTAL OF          6 INNER ITERATIONS.
    ------------------------------------------------

 OUTPUT CONTROL FOR STRESS PERIOD    1   TIME STEP  446
    SAVE HEAD FOR ALL LAYERS
 SOLVING FOR ZETA FOR LAYER     1 ZONE     2

     617 UPPER PART EQS.       597 LOWER PART EQS.    BAND WIDTH + 1 =   41
 STRESS PERIOD=  1 TIMESTEP=446 LAYER=  1 ZONE=  2 ACTIVE CELLS= 1214 NUMBER OF EQUATIONS=    1214
 SOLVING FOR ZETA FOR LAYER     2 ZONE     2

     561 UPPER PART EQS.       556 LOWER PART EQS.    BAND WIDTH + 1 =   32
 STRESS PERIOD=  1 TIMESTEP=446 LAYER=  2 ZONE=  2 ACTIVE CELLS= 1117 NUMBER OF EQUATIONS=    1117
 UBUDSV SAVING "      ZETASRF  1" ON UNIT 55 AT TIME STEP446, STRESS PERIOD    1

 HEAD WILL BE SAVED ON UNIT   51 AT END OF TIME STEP  446, STRESS PERIOD    1
 
 SOLVING FOR HEAD 
                                                   Max.-Head-Change                         Max.-Flux-Residual
  Residual-Control   Outer-Iter.   Inner-Iter.     Column Row Layer    Maximum-Head-Change  Column Row Layer    Maximum-Flux-Residual          L2-NORM 
          0                 1           1             8   35     1       0.6056193198E-03       8   35    1         0.5617104017E+00      0.3521666883E+01
          0                 2           1            44   25     1       0.2784450478E-04      32    9    1         0.7751065078E-02      0.6316477224E-01
          0                 3           1            42   27     1       0.2597024689E-04      46   26    2         0.1327790190E-02      0.2325121078E-01
          0                 4           1            37   28     1       0.1695313991E-04      43   29    2         0.9608839889E-03      0.1760957207E-01
          0                 5           1            32   28     2       0.1993692298E-04      46   26    2         0.7634087521E-03      0.1547904449E-01
          0                 6           1            32   29     1       0.1399382890E-04      43   29    2         0.7174279568E-03      0.1397334126E-01
          0                 7           1            32   29     1       0.1625030730E-04      32   28    2         0.6169637579E-03      0.1251189898E-01
          0                 8           1            32   30     2       0.1107832839E-04      43   29    2         0.5946710413E-03      0.1134946558E-01
          0                 9           1            32   29     1       0.1296910346E-04      46   26    2         0.5032844388E-03      0.1016272148E-01
          0                10           1            31   31     2       0.8822625896E-05      43   29    2         0.4997164029E-03      0.9231689371E-02

    ------------------------------------------------
       NWT REQUIRED           10 OUTER ITERATIONS 
       AND A TOTAL OF         10 INNER ITERATIONS.
    ------------------------------------------------

 OUTPUT CONTROL FOR STRESS PERIOD    1   TIME STEP  447
    SAVE HEAD FOR ALL LAYERS
 SOLVING FOR ZETA FOR LAYER     1 ZONE     2

     592 UPPER PART EQS.       607 LOWER PART EQS.    BAND WIDTH + 1 =   32
 STRESS PERIOD=  1 TIMESTEP=447 LAYER=  1 ZONE=  2 ACTIVE CELLS= 1199 NUMBER OF EQUATIONS=    1199
 SOLVING FOR ZETA FOR LAYER     2 ZONE     2

     561 UPPER PART EQS.       556 LOWER PART EQS.    BAND WIDTH + 1 =   32
 STRESS PERIOD=  1 TIMESTEP=447 LAYER=  2 ZONE=  2 ACTIVE CELLS= 1117 NUMBER OF EQUATIONS=    1117
 UBUDSV SAVING "      ZETASRF  1" ON UNIT 55 AT TIME STEP447, STRESS PERIOD    1

 HEAD WILL BE SAVED ON UNIT   51 AT END OF TIME STEP  447, STRESS PERIOD    1
 
 SOLVING FOR HEAD 
                                                   Max.-Head-Change                         Max.-Flux-Residual
  Residual-Control   Outer-Iter.   Inner-Iter.     Column Row Layer    Maximum-Head-Change  Column Row Layer    Maximum-Flux-Residual          L2-NORM 
          0                 1           1            31    8     1       0.7485759515E-03      34   54    1         0.5723756084E+00      0.4014634151E+01
          0                 2           1            29   11     2      -0.4631201452E-04      28    9    1         0.7214126689E-02      0.6861636865E-01
          0                 3           1            32   12     2      -0.2779629374E-04      28   13    1        -0.2009904557E-02      0.2342729886E-01
          0                 4           1            25   28     1       0.1292146780E-04      20   24    2         0.7613038225E-03      0.1454350591E-01
          0                 5           1            28   32     2       0.1577874338E-04      28   32    2         0.6229217483E-03      0.1166483838E-01
          0                 6           1            28   33     1       0.1102151661E-04      28   32    2         0.5494149156E-03      0.1005714680E-01
          0                 7           1            28   34     2       0.1239564090E-04      28   32    2         0.4755853981E-03      0.8823420381E-02
          0                 8           1            28   33     1       0.8265787841E-05      27   33    2         0.4064488273E-03      0.7879762281E-02

    ------------------------------------------------
       NWT REQUIRED            8 OUTER ITERATIONS 
       AND A TOTAL OF          8 INNER ITERATIONS.
    ------------------------------------------------

 OUTPUT CONTROL FOR STRESS PERIOD    1   TIME STEP  448
    SAVE HEAD FOR ALL LAYERS
 SOLVING FOR ZETA FOR LAYER     1 ZONE     2

     610 UPPER PART EQS.       583 LOWER PART EQS.    BAND WIDTH + 1 =   38
 STRESS PERIOD=  1 TIMESTEP=448 LAYER=  1 ZONE=  2 ACTIVE CELLS= 1193 NUMBER OF EQUATIONS=    1193
 SOLVING FOR ZETA FOR LAYER     2 ZONE     2

     559 UPPER PART EQS.       556 LOWER PART EQS.    BAND WIDTH + 1 =   32
 STRESS PERIOD=  1 TIMESTEP=448 LAYER=  2 ZONE=  2 ACTIVE CELLS= 1115 NUMBER OF EQUATIONS=    1115
 UBUDSV SAVING "      ZETASRF  1" ON UNIT 55 AT TIME STEP448, STRESS PERIOD    1

 HEAD WILL BE SAVED ON UNIT   51 AT END OF TIME STEP  448, STRESS PERIOD    1
 
 SOLVING FOR HEAD 
                                                   Max.-Head-Change                         Max.-Flux-Residual
  Residual-Control   Outer-Iter.   Inner-Iter.     Column Row Layer    Maximum-Head-Change  Column Row Layer    Maximum-Flux-Residual          L2-NORM 
          0                 1           1             8   26     1       0.6025995992E-03       8   26    1         0.5511606062E+00      0.3996656510E+01
          0                 2           1            43   49     2      -0.3430061657E-04      12   25    1        -0.7644598176E-02      0.7278797875E-01
          0                 3           1            46   48     2      -0.2598486394E-04      45   48    1        -0.1721452732E-02      0.2196644309E-01
          0                 4           1            34   29     1       0.9356446309E-05      11   18    1        -0.6221845032E-03      0.1216088903E-01

    ------------------------------------------------
       NWT REQUIRED            4 OUTER ITERATIONS 
       AND A TOTAL OF          4 INNER ITERATIONS.
    ------------------------------------------------

 OUTPUT CONTROL FOR STRESS PERIOD    1   TIME STEP  449
    SAVE HEAD FOR ALL LAYERS
 SOLVING FOR ZETA FOR LAYER     1 ZONE     2

     609 UPPER PART EQS.       601 LOWER PART EQS.    BAND WIDTH + 1 =   29
 STRESS PERIOD=  1 TIMESTEP=449 LAYER=  1 ZONE=  2 ACTIVE CELLS= 1210 NUMBER OF EQUATIONS=    1210
 SOLVING FOR ZETA FOR LAYER     2 ZONE     2

     561 UPPER PART EQS.       556 LOWER PART EQS.    BAND WIDTH + 1 =   32
 STRESS PERIOD=  1 TIMESTEP=449 LAYER=  2 ZONE=  2 ACTIVE CELLS= 1117 NUMBER OF EQUATIONS=    1117
 UBUDSV SAVING "      ZETASRF  1" ON UNIT 55 AT TIME STEP449, STRESS PERIOD    1

 HEAD WILL BE SAVED ON UNIT   51 AT END OF TIME STEP  449, STRESS PERIOD    1
 
 SOLVING FOR HEAD 
                                                   Max.-Head-Change                         Max.-Flux-Residual
  Residual-Control   Outer-Iter.   Inner-Iter.     Column Row Layer    Maximum-Head-Change  Column Row Layer    Maximum-Flux-Residual          L2-NORM 
          0                 1           1            26   54     1       0.6467143950E-03      54   33    1         0.5586144640E+00      0.3261163753E+01
          0                 2           1            26   50     2      -0.3185274743E-04      50   23    1         0.6736800730E-02      0.6664586748E-01
          0                 3           1            39   22     1       0.2330284362E-04      28   53    1        -0.1273601551E-02      0.2473244101E-01
          0                 4           1            34   25     1       0.1600711138E-04      44   25    1         0.9550082839E-03      0.1739504506E-01
          0                 5           1            32   29     1       0.2083847271E-04      32   28    2         0.7662259536E-03      0.1512137072E-01
          0                 6           1            33   31     2       0.1365226564E-04      44   25    1         0.7030760601E-03      0.1355583490E-01
          0                 7           1            33   31     2       0.1679312158E-04      33   31    2         0.6188887587E-03      0.1213377238E-01
          0                 8           1            33   31     2       0.1061415945E-04      43   25    2         0.5787291324E-03      0.1097737860E-01
          0                 9           1            33   31     2       0.1308566239E-04      34   30    2         0.4878540125E-03      0.9824798514E-02
          0                10           1            31   31     2       0.8434512956E-05      43   25    2         0.4790240994E-03      0.8908466121E-02

    ------------------------------------------------
       NWT REQUIRED           10 OUTER ITERATIONS 
       AND A TOTAL OF         10 INNER ITERATIONS.
    ------------------------------------------------

 OUTPUT CONTROL FOR STRESS PERIOD    1   TIME STEP  450
    SAVE HEAD FOR ALL LAYERS
 SOLVING FOR ZETA FOR LAYER     1 ZONE     2

     592 UPPER PART EQS.       608 LOWER PART EQS.    BAND WIDTH + 1 =   26
 STRESS PERIOD=  1 TIMESTEP=450 LAYER=  1 ZONE=  2 ACTIVE CELLS= 1200 NUMBER OF EQUATIONS=    1200
 SOLVING FOR ZETA FOR LAYER     2 ZONE     2

     561 UPPER PART EQS.       556 LOWER PART EQS.    BAND WIDTH + 1 =   32
 STRESS PERIOD=  1 TIMESTEP=450 LAYER=  2 ZONE=  2 ACTIVE CELLS= 1117 NUMBER OF EQUATIONS=    1117
 UBUDSV SAVING "      ZETASRF  1" ON UNIT 55 AT TIME STEP450, STRESS PERIOD    1

 HEAD WILL BE SAVED ON UNIT   51 AT END OF TIME STEP  450, STRESS PERIOD    1
 
 SOLVING FOR HEAD 
                                                   Max.-Head-Change                         Max.-Flux-Residual
  Residual-Control   Outer-Iter.   Inner-Iter.     Column Row Layer    Maximum-Head-Change  Column Row Layer    Maximum-Flux-Residual          L2-NORM 
          0                 1           1             8   28     1       0.6184644024E-03       8   28    1         0.5568399763E+00      0.4343466398E+01
          0                 2           1            51   21     2      -0.2541096791E-04      57   24    1         0.5706324576E-02      0.5796602473E-01
          0                 3           1            23   22     1       0.1834448577E-04      51   38    1        -0.1039566223E-02      0.1969541794E-01
          0                 4           1            27   30     1       0.1192655685E-04      27   25    2         0.6367329702E-03      0.1274219873E-01
          0                 5           1            29   31     2       0.1525481498E-04      30   30    2         0.5912376637E-03      0.1041869227E-01
          0                 6           1            29   32     1       0.1022576056E-04      29   31    2         0.5065685375E-03      0.9103736397E-02
          0                 7           1            29   31     2       0.1123736338E-04      29   31    2         0.4419676791E-03      0.8075607767E-02
          0                 8           1            29   32     1       0.8037722358E-05      29   31    2         0.3746715172E-03      0.7293729095E-02

    ------------------------------------------------
       NWT REQUIRED            8 OUTER ITERATIONS 
       AND A TOTAL OF          8 INNER ITERATIONS.
    ------------------------------------------------

 OUTPUT CONTROL FOR STRESS PERIOD    1   TIME STEP  451
    SAVE HEAD FOR ALL LAYERS
 SOLVING FOR ZETA FOR LAYER     1 ZONE     2

     614 UPPER PART EQS.       599 LOWER PART EQS.    BAND WIDTH + 1 =   28
 STRESS PERIOD=  1 TIMESTEP=451 LAYER=  1 ZONE=  2 ACTIVE CELLS= 1213 NUMBER OF EQUATIONS=    1213
 SOLVING FOR ZETA FOR LAYER     2 ZONE     2

     559 UPPER PART EQS.       556 LOWER PART EQS.    BAND WIDTH + 1 =   32
 STRESS PERIOD=  1 TIMESTEP=451 LAYER=  2 ZONE=  2 ACTIVE CELLS= 1115 NUMBER OF EQUATIONS=    1115
 UBUDSV SAVING "      ZETASRF  1" ON UNIT 55 AT TIME STEP451, STRESS PERIOD    1

 HEAD WILL BE SAVED ON UNIT   51 AT END OF TIME STEP  451, STRESS PERIOD    1
 
 SOLVING FOR HEAD 
                                                   Max.-Head-Change                         Max.-Flux-Residual
  Residual-Control   Outer-Iter.   Inner-Iter.     Column Row Layer    Maximum-Head-Change  Column Row Layer    Maximum-Flux-Residual          L2-NORM 
          0                 1           1            36   54     1       0.6524719476E-03       8   33    1         0.5533821832E+00      0.3978207462E+01
          0                 2           1            35   51     2      -0.2719008400E-04      35   13    2        -0.7334085437E-02      0.6475221207E-01
          0                 3           1            35   20     1       0.1876126618E-04      38   50    2        -0.1299539935E-02      0.1808169794E-01
          0                 4           1            34   25     1       0.1097233675E-04      49   31    2         0.6668628548E-03      0.1116018242E-01
          0                 5           1            34   29     1       0.1271393620E-04      33   27    2         0.5208431262E-03      0.8905211696E-02
          0                 6           1            34   30     2       0.9107357150E-05      34   30    2         0.4531932988E-03      0.7737803217E-02

    ------------------------------------------------
       NWT REQUIRED            6 OUTER ITERATIONS 
       AND A TOTAL OF          6 INNER ITERATIONS.
    ------------------------------------------------

 OUTPUT CONTROL FOR STRESS PERIOD    1   TIME STEP  452
    SAVE HEAD FOR ALL LAYERS
 SOLVING FOR ZETA FOR LAYER     1 ZONE     2

     623 UPPER PART EQS.       593 LOWER PART EQS.    BAND WIDTH + 1 =   42
 STRESS PERIOD=  1 TIMESTEP=452 LAYER=  1 ZONE=  2 ACTIVE CELLS= 1216 NUMBER OF EQUATIONS=    1216
 SOLVING FOR ZETA FOR LAYER     2 ZONE     2

     565 UPPER PART EQS.       564 LOWER PART EQS.    BAND WIDTH + 1 =   32
 STRESS PERIOD=  1 TIMESTEP=452 LAYER=  2 ZONE=  2 ACTIVE CELLS= 1129 NUMBER OF EQUATIONS=    1129
 UBUDSV SAVING "      ZETASRF  1" ON UNIT 55 AT TIME STEP452, STRESS PERIOD    1

 HEAD WILL BE SAVED ON UNIT   51 AT END OF TIME STEP  452, STRESS PERIOD    1
 
 SOLVING FOR HEAD 
                                                   Max.-Head-Change                         Max.-Flux-Residual
  Residual-Control   Outer-Iter.   Inner-Iter.     Column Row Layer    Maximum-Head-Change  Column Row Layer    Maximum-Flux-Residual          L2-NORM 
          0                 1           1            34    8     1       0.6126433833E-03      34    8    1         0.5513128833E+00      0.3248573783E+01
          0                 2           1            44   25     1       0.2467724635E-04       5   26    1         0.5799333880E-02      0.5939186655E-01
          0                 3           1            40   38     2       0.2085882574E-04      41   40    1         0.1098385154E-02      0.2165859579E-01
          0                 4           1            35   37     2       0.1429957004E-04      37   39    2         0.7812130158E-03      0.1503163527E-01
          0                 5           1            31   33     2       0.1867371636E-04      32   32    2         0.6905951307E-03      0.1298315323E-01
          0                 6           1            30   33     1       0.1217162438E-04      31   33    2         0.5983185179E-03      0.1163994633E-01
          0                 7           1            31   33     2       0.1439378357E-04      32   32    2         0.5412467260E-03      0.1039048977E-01
          0                 8           1            30   33     1       0.9409746798E-05      31   33    2         0.4599630350E-03      0.9427010893E-02

    ------------------------------------------------
       NWT REQUIRED            8 OUTER ITERATIONS 
       AND A TOTAL OF          8 INNER ITERATIONS.
    ------------------------------------------------

 OUTPUT CONTROL FOR STRESS PERIOD    1   TIME STEP  453
    SAVE HEAD FOR ALL LAYERS
 SOLVING FOR ZETA FOR LAYER     1 ZONE     2

     598 UPPER PART EQS.       610 LOWER PART EQS.    BAND WIDTH + 1 =   29
 STRESS PERIOD=  1 TIMESTEP=453 LAYER=  1 ZONE=  2 ACTIVE CELLS= 1208 NUMBER OF EQUATIONS=    1208
 SOLVING FOR ZETA FOR LAYER     2 ZONE     2

     565 UPPER PART EQS.       564 LOWER PART EQS.    BAND WIDTH + 1 =   32
 STRESS PERIOD=  1 TIMESTEP=453 LAYER=  2 ZONE=  2 ACTIVE CELLS= 1129 NUMBER OF EQUATIONS=    1129
 UBUDSV SAVING "      ZETASRF  1" ON UNIT 55 AT TIME STEP453, STRESS PERIOD    1

 HEAD WILL BE SAVED ON UNIT   51 AT END OF TIME STEP  453, STRESS PERIOD    1
 
 SOLVING FOR HEAD 
                                                   Max.-Head-Change                         Max.-Flux-Residual
  Residual-Control   Outer-Iter.   Inner-Iter.     Column Row Layer    Maximum-Head-Change  Column Row Layer    Maximum-Flux-Residual          L2-NORM 
          0                 1           1            38   54     1       0.5778417687E-03      38   54    1         0.5313674626E+00      0.3631093030E+01
          0                 2           1            17   28     1       0.2014397257E-04      12   29    1         0.6341967657E-02      0.5596543628E-01
          0                 3           1            17   27     2       0.2344901655E-04      16   28    2         0.1207019603E-02      0.2009865398E-01
          0                 4           1            24   28     2       0.1408420226E-04      21   27    2         0.7856626415E-03      0.1486314697E-01
          0                 5           1            28   29     1       0.1886756836E-04      28   28    2         0.6635054117E-03      0.1287202464E-01
          0                 6           1            28   29     1       0.1089638161E-04      30   30    2         0.5772171132E-03      0.1153487736E-01
          0                 7           1            30   30     2       0.1590297425E-04      30   30    2         0.5234179981E-03      0.1025962217E-01
          0                 8           1            29   30     1       0.8143513457E-05      43   33    2         0.4519643546E-03      0.9299942490E-02

    ------------------------------------------------
       NWT REQUIRED            8 OUTER ITERATIONS 
       AND A TOTAL OF          8 INNER ITERATIONS.
    ------------------------------------------------

 OUTPUT CONTROL FOR STRESS PERIOD    1   TIME STEP  454
    SAVE HEAD FOR ALL LAYERS
 SOLVING FOR ZETA FOR LAYER     1 ZONE     2

     612 UPPER PART EQS.       592 LOWER PART EQS.    BAND WIDTH + 1 =   34
 STRESS PERIOD=  1 TIMESTEP=454 LAYER=  1 ZONE=  2 ACTIVE CELLS= 1204 NUMBER OF EQUATIONS=    1204
 SOLVING FOR ZETA FOR LAYER     2 ZONE     2

     565 UPPER PART EQS.       564 LOWER PART EQS.    BAND WIDTH + 1 =   32
 STRESS PERIOD=  1 TIMESTEP=454 LAYER=  2 ZONE=  2 ACTIVE CELLS= 1129 NUMBER OF EQUATIONS=    1129
 UBUDSV SAVING "      ZETASRF  1" ON UNIT 55 AT TIME STEP454, STRESS PERIOD    1

 HEAD WILL BE SAVED ON UNIT   51 AT END OF TIME STEP  454, STRESS PERIOD    1
 
 SOLVING FOR HEAD 
                                                   Max.-Head-Change                         Max.-Flux-Residual
  Residual-Control   Outer-Iter.   Inner-Iter.     Column Row Layer    Maximum-Head-Change  Column Row Layer    Maximum-Flux-Residual          L2-NORM 
          0                 1           1             8   31     1       0.6860977762E-03      54   31    1         0.5527843832E+00      0.3856199604E+01
          0                 2           1            36   49     1       0.2576982812E-04      36   49    1         0.7247821148E-02      0.6314717186E-01
          0                 3           1            32   44     2       0.1877788061E-04      34   47    1         0.1125400671E-02      0.1811825292E-01
          0                 4           1            33   39     2       0.1104650912E-04      36   49    1         0.6621994551E-03      0.1162105664E-01
          0                 5           1            31   37     2       0.1386730454E-04      31   37    2         0.5356802898E-03      0.9159137957E-02
          0                 6           1            31   36     1       0.8235121498E-05      36   49    1         0.4668504019E-03      0.7823289547E-02

    ------------------------------------------------
       NWT REQUIRED            6 OUTER ITERATIONS 
       AND A TOTAL OF          6 INNER ITERATIONS.
    ------------------------------------------------

 OUTPUT CONTROL FOR STRESS PERIOD    1   TIME STEP  455
    SAVE HEAD FOR ALL LAYERS
 SOLVING FOR ZETA FOR LAYER     1 ZONE     2

     598 UPPER PART EQS.       602 LOWER PART EQS.    BAND WIDTH + 1 =   24
 STRESS PERIOD=  1 TIMESTEP=455 LAYER=  1 ZONE=  2 ACTIVE CELLS= 1200 NUMBER OF EQUATIONS=    1200
 SOLVING FOR ZETA FOR LAYER     2 ZONE     2

     561 UPPER PART EQS.       564 LOWER PART EQS.    BAND WIDTH + 1 =   32
 STRESS PERIOD=  1 TIMESTEP=455 LAYER=  2 ZONE=  2 ACTIVE CELLS= 1125 NUMBER OF EQUATIONS=    1125
 UBUDSV SAVING "      ZETASRF  1" ON UNIT 55 AT TIME STEP455, STRESS PERIOD    1

 HEAD WILL BE SAVED ON UNIT   51 AT END OF TIME STEP  455, STRESS PERIOD    1
 
 SOLVING FOR HEAD 
                                                   Max.-Head-Change                         Max.-Flux-Residual
  Residual-Control   Outer-Iter.   Inner-Iter.     Column Row Layer    Maximum-Head-Change  Column Row Layer    Maximum-Flux-Residual          L2-NORM 
          0                 1           1            35   54     1       0.6088725062E-03      35   54    1         0.5496313891E+00      0.3742395988E+01
          0                 2           1            21   51     2      -0.3781737212E-04      50   23    1         0.5937078090E-02      0.6905512027E-01
          0                 3           1            39   22     1       0.2246204539E-04      23   49    2        -0.1403385754E-02      0.2586625966E-01
          0                 4           1            36   25     1       0.1468627415E-04      44   25    1         0.9991408095E-03      0.1683384468E-01
          0                 5           1            34   30     2       0.1914233367E-04      33   27    2         0.7202958529E-03      0.1399352979E-01
          0                 6           1            34   30     2       0.1290375336E-04      36   28    2         0.6593252901E-03      0.1231052709E-01
          0                 7           1            33   30     1       0.1601708553E-04      34   30    2         0.5888686635E-03      0.1096951114E-01
          0                 8           1            34   30     2       0.9726202084E-05      43   25    2         0.5263378417E-03      0.9909044875E-02

    ------------------------------------------------
       NWT REQUIRED            8 OUTER ITERATIONS 
       AND A TOTAL OF          8 INNER ITERATIONS.
    ------------------------------------------------

 OUTPUT CONTROL FOR STRESS PERIOD    1   TIME STEP  456
    SAVE HEAD FOR ALL LAYERS
 SOLVING FOR ZETA FOR LAYER     1 ZONE     2

     599 UPPER PART EQS.       608 LOWER PART EQS.    BAND WIDTH + 1 =   25
 STRESS PERIOD=  1 TIMESTEP=456 LAYER=  1 ZONE=  2 ACTIVE CELLS= 1207 NUMBER OF EQUATIONS=    1207
 SOLVING FOR ZETA FOR LAYER     2 ZONE     2

     567 UPPER PART EQS.       556 LOWER PART EQS.    BAND WIDTH + 1 =   32
 STRESS PERIOD=  1 TIMESTEP=456 LAYER=  2 ZONE=  2 ACTIVE CELLS= 1123 NUMBER OF EQUATIONS=    1123
 UBUDSV SAVING "      ZETASRF  1" ON UNIT 55 AT TIME STEP456, STRESS PERIOD    1

 HEAD WILL BE SAVED ON UNIT   51 AT END OF TIME STEP  456, STRESS PERIOD    1
 
 SOLVING FOR HEAD 
                                                   Max.-Head-Change                         Max.-Flux-Residual
  Residual-Control   Outer-Iter.   Inner-Iter.     Column Row Layer    Maximum-Head-Change  Column Row Layer    Maximum-Flux-Residual          L2-NORM 
          0                 1           1            54   38     1       0.5848675984E-03       8   40    1         0.5189338817E+00      0.3657378658E+01
          0                 2           1            11   33     2      -0.2211474609E-04      26   47    1         0.5740634823E-02      0.5497252836E-01
          0                 3           1            22   27     1       0.1718942181E-04      41   28    1         0.7998814114E-03      0.1770165820E-01
          0                 4           1            28   29     1       0.1176941503E-04      32   48    2         0.6746147646E-03      0.1183125834E-01
          0                 5           1            31   31     2       0.1443455181E-04      31   29    2         0.5860324360E-03      0.9777240226E-02
          0                 6           1            30   31     1       0.1013640700E-04      30   30    2         0.4870729935E-03      0.8599181194E-02
          0                 7           1            30   30     2       0.9857613061E-05      30   30    2         0.4189247035E-03      0.7665231919E-02

    ------------------------------------------------
       NWT REQUIRED            7 OUTER ITERATIONS 
       AND A TOTAL OF          7 INNER ITERATIONS.
    ------------------------------------------------

 OUTPUT CONTROL FOR STRESS PERIOD    1   TIME STEP  457
    SAVE HEAD FOR ALL LAYERS
 SOLVING FOR ZETA FOR LAYER     1 ZONE     2

     611 UPPER PART EQS.       602 LOWER PART EQS.    BAND WIDTH + 1 =   25
 STRESS PERIOD=  1 TIMESTEP=457 LAYER=  1 ZONE=  2 ACTIVE CELLS= 1213 NUMBER OF EQUATIONS=    1213
 SOLVING FOR ZETA FOR LAYER     2 ZONE     2

     569 UPPER PART EQS.       564 LOWER PART EQS.    BAND WIDTH + 1 =   32
 STRESS PERIOD=  1 TIMESTEP=457 LAYER=  2 ZONE=  2 ACTIVE CELLS= 1133 NUMBER OF EQUATIONS=    1133
 UBUDSV SAVING "      ZETASRF  1" ON UNIT 55 AT TIME STEP457, STRESS PERIOD    1

 HEAD WILL BE SAVED ON UNIT   51 AT END OF TIME STEP  457, STRESS PERIOD    1
 
 SOLVING FOR HEAD 
                                                   Max.-Head-Change                         Max.-Flux-Residual
  Residual-Control   Outer-Iter.   Inner-Iter.     Column Row Layer    Maximum-Head-Change  Column Row Layer    Maximum-Flux-Residual          L2-NORM 
          0                 1           1            40   54     1       0.5493804524E-03      40   54    1         0.5173471339E+00      0.3533182731E+01
          0                 2           1            24   12     2      -0.1859408646E-04      36   49    1         0.5822990832E-02      0.5535782918E-01
          0                 3           1            33   20     1       0.1688843262E-04      34   19    1         0.8399591018E-03      0.1653200369E-01
          0                 4           1            31   26     1       0.1046611139E-04      32   24    2         0.5716462615E-03      0.1058601586E-01
          0                 5           1            31   30     1       0.1268964977E-04      31   29    2         0.5041474685E-03      0.8579051885E-02
          0                 6           1            30   31     1       0.8557806293E-05      30   30    2         0.4320429418E-03      0.7495761010E-02

    ------------------------------------------------
       NWT REQUIRED            6 OUTER ITERATIONS 
       AND A TOTAL OF          6 INNER ITERATIONS.
    ------------------------------------------------

 OUTPUT CONTROL FOR STRESS PERIOD    1   TIME STEP  458
    SAVE HEAD FOR ALL LAYERS
 SOLVING FOR ZETA FOR LAYER     1 ZONE     2

     624 UPPER PART EQS.       597 LOWER PART EQS.    BAND WIDTH + 1 =   40
 STRESS PERIOD=  1 TIMESTEP=458 LAYER=  1 ZONE=  2 ACTIVE CELLS= 1221 NUMBER OF EQUATIONS=    1221
 SOLVING FOR ZETA FOR LAYER     2 ZONE     2

     573 UPPER PART EQS.       564 LOWER PART EQS.    BAND WIDTH + 1 =   32
 STRESS PERIOD=  1 TIMESTEP=458 LAYER=  2 ZONE=  2 ACTIVE CELLS= 1137 NUMBER OF EQUATIONS=    1137
 UBUDSV SAVING "      ZETASRF  1" ON UNIT 55 AT TIME STEP458, STRESS PERIOD    1

 HEAD WILL BE SAVED ON UNIT   51 AT END OF TIME STEP  458, STRESS PERIOD    1
 
 SOLVING FOR HEAD 
                                                   Max.-Head-Change                         Max.-Flux-Residual
  Residual-Control   Outer-Iter.   Inner-Iter.     Column Row Layer    Maximum-Head-Change  Column Row Layer    Maximum-Flux-Residual          L2-NORM 
          0                 1           1            39    8     1       0.5537255106E-03      39    8    1         0.5199505534E+00      0.2905936330E+01
          0                 2           1            45   40     1       0.2540852363E-04      45   40    1         0.6106418641E-02      0.5619541603E-01
          0                 3           1            24   21     1       0.2060801411E-04      43   42    1         0.1165572326E-02      0.2107092803E-01
          0                 4           1            36   38     2       0.1432345495E-04      18   23    1         0.8800471625E-03      0.1616734324E-01
          0                 5           1            31   33     2       0.1774983479E-04      16   28    2         0.7844128089E-03      0.1424571754E-01
          0                 6           1            29   32     1       0.1235326171E-04      18   23    1         0.6271664077E-03      0.1291920079E-01
          0                 7           1            30   32     2       0.1483567327E-04      16   28    2         0.6292549331E-03      0.1151889297E-01
          0                 8           1            29   32     1       0.9820713632E-05      16   28    2         0.4945561411E-03      0.1047978658E-01

    ------------------------------------------------
       NWT REQUIRED            8 OUTER ITERATIONS 
       AND A TOTAL OF          8 INNER ITERATIONS.
    ------------------------------------------------

 OUTPUT CONTROL FOR STRESS PERIOD    1   TIME STEP  459
    SAVE HEAD FOR ALL LAYERS
 SOLVING FOR ZETA FOR LAYER     1 ZONE     2

     594 UPPER PART EQS.       608 LOWER PART EQS.    BAND WIDTH + 1 =   30
 STRESS PERIOD=  1 TIMESTEP=459 LAYER=  1 ZONE=  2 ACTIVE CELLS= 1202 NUMBER OF EQUATIONS=    1202
 SOLVING FOR ZETA FOR LAYER     2 ZONE     2

     573 UPPER PART EQS.       564 LOWER PART EQS.    BAND WIDTH + 1 =   32
 STRESS PERIOD=  1 TIMESTEP=459 LAYER=  2 ZONE=  2 ACTIVE CELLS= 1137 NUMBER OF EQUATIONS=    1137
 UBUDSV SAVING "      ZETASRF  1" ON UNIT 55 AT TIME STEP459, STRESS PERIOD    1

 HEAD WILL BE SAVED ON UNIT   51 AT END OF TIME STEP  459, STRESS PERIOD    1
 
 SOLVING FOR HEAD 
                                                   Max.-Head-Change                         Max.-Flux-Residual
  Residual-Control   Outer-Iter.   Inner-Iter.     Column Row Layer    Maximum-Head-Change  Column Row Layer    Maximum-Flux-Residual          L2-NORM 
          0                 1           1             8   24     1       0.5763688323E-03       8   24    1         0.5254845768E+00      0.3767381650E+01
          0                 2           1            11   23     2      -0.3157305378E-04      24   53    1         0.5614227404E-02      0.5923456184E-01
          0                 3           1            40   25     1       0.2223080751E-04      45   40    1         0.1143550489E-02      0.2300736673E-01
          0                 4           1            35   28     1       0.1381123419E-04      43   25    2         0.7800889563E-03      0.1555361200E-01
          0                 5           1            32   32     2       0.1989827006E-04      32   32    2         0.7124775499E-03      0.1307120749E-01
          0                 6           1            31   32     1       0.1155963178E-04      30   30    2         0.6100903154E-03      0.1153909879E-01
          0                 7           1            32   32     2       0.1577343367E-04      33   31    2         0.5504800765E-03      0.1025570851E-01
          0                 8           1            31   32     1       0.8753188770E-05      43   25    2         0.4841336118E-03      0.9265891995E-02

    ------------------------------------------------
       NWT REQUIRED            8 OUTER ITERATIONS 
       AND A TOTAL OF          8 INNER ITERATIONS.
    ------------------------------------------------

 OUTPUT CONTROL FOR STRESS PERIOD    1   TIME STEP  460
    SAVE HEAD FOR ALL LAYERS
 SOLVING FOR ZETA FOR LAYER     1 ZONE     2

     606 UPPER PART EQS.       606 LOWER PART EQS.    BAND WIDTH + 1 =   24
 STRESS PERIOD=  1 TIMESTEP=460 LAYER=  1 ZONE=  2 ACTIVE CELLS= 1212 NUMBER OF EQUATIONS=    1212
 SOLVING FOR ZETA FOR LAYER     2 ZONE     2

     567 UPPER PART EQS.       564 LOWER PART EQS.    BAND WIDTH + 1 =   32
 STRESS PERIOD=  1 TIMESTEP=460 LAYER=  2 ZONE=  2 ACTIVE CELLS= 1131 NUMBER OF EQUATIONS=    1131
 UBUDSV SAVING "      ZETASRF  1" ON UNIT 55 AT TIME STEP460, STRESS PERIOD    1

 HEAD WILL BE SAVED ON UNIT   51 AT END OF TIME STEP  460, STRESS PERIOD    1
 
 SOLVING FOR HEAD 
                                                   Max.-Head-Change                         Max.-Flux-Residual
  Residual-Control   Outer-Iter.   Inner-Iter.     Column Row Layer    Maximum-Head-Change  Column Row Layer    Maximum-Flux-Residual          L2-NORM 
          0                 1           1            25   54     1       0.5895812272E-03       8   37    1         0.5304657101E+00      0.3239514357E+01
          0                 2           1            21   51     2      -0.2077785278E-04      36   49    1         0.5900972585E-02      0.5377374373E-01
          0                 3           1            31   20     1       0.1679925948E-04      23   49    2        -0.8161880517E-03      0.1620855003E-01
          0                 4           1            32   27     1       0.1075365802E-04      31   25    2         0.5689312123E-03      0.1072174245E-01
          0                 5           1            32   30     2       0.1325449530E-04      32   28    2         0.5241153241E-03      0.8712373069E-02
          0                 6           1            32   30     2       0.8490302466E-05      31   29    2         0.4330171315E-03      0.7601042405E-02

    ------------------------------------------------
       NWT REQUIRED            6 OUTER ITERATIONS 
       AND A TOTAL OF          6 INNER ITERATIONS.
    ------------------------------------------------

 OUTPUT CONTROL FOR STRESS PERIOD    1   TIME STEP  461
    SAVE HEAD FOR ALL LAYERS
 SOLVING FOR ZETA FOR LAYER     1 ZONE     2

     611 UPPER PART EQS.       600 LOWER PART EQS.    BAND WIDTH + 1 =   27
 STRESS PERIOD=  1 TIMESTEP=461 LAYER=  1 ZONE=  2 ACTIVE CELLS= 1211 NUMBER OF EQUATIONS=    1211
 SOLVING FOR ZETA FOR LAYER     2 ZONE     2

     571 UPPER PART EQS.       556 LOWER PART EQS.    BAND WIDTH + 1 =   32
 STRESS PERIOD=  1 TIMESTEP=461 LAYER=  2 ZONE=  2 ACTIVE CELLS= 1127 NUMBER OF EQUATIONS=    1127
 UBUDSV SAVING "      ZETASRF  1" ON UNIT 55 AT TIME STEP461, STRESS PERIOD    1

 HEAD WILL BE SAVED ON UNIT   51 AT END OF TIME STEP  461, STRESS PERIOD    1
 
 SOLVING FOR HEAD 
                                                   Max.-Head-Change                         Max.-Flux-Residual
  Residual-Control   Outer-Iter.   Inner-Iter.     Column Row Layer    Maximum-Head-Change  Column Row Layer    Maximum-Flux-Residual          L2-NORM 
          0                 1           1             8   22     1       0.5432128886E-03       8   22    1         0.5059823662E+00      0.3295663771E+01
          0                 2           1            23   18     1       0.2534688053E-04      45   40    1         0.5829084216E-02      0.5823362796E-01
          0                 3           1            25   20     1       0.2494044525E-04      26   19    1         0.1286107011E-02      0.1940755204E-01
          0                 4           1            28   25     1       0.1330362861E-04      26   22    2         0.7258457596E-03      0.1396965771E-01
          0                 5           1            30   29     1       0.1628368473E-04      30   26    2         0.6171081324E-03      0.1212692218E-01
          0                 6           1            30   31     1       0.1150949159E-04      30   30    2         0.5457746294E-03      0.1093289756E-01
          0                 7           1            30   30     2       0.1193427177E-04      30   30    2         0.4876098546E-03      0.9800619020E-02
          0                 8           1            30   31     1       0.9583090834E-05      30   30    2         0.4296161615E-03      0.8882652608E-02

    ------------------------------------------------
       NWT REQUIRED            8 OUTER ITERATIONS 
       AND A TOTAL OF          8 INNER ITERATIONS.
    ------------------------------------------------

 OUTPUT CONTROL FOR STRESS PERIOD    1   TIME STEP  462
    SAVE HEAD FOR ALL LAYERS
 SOLVING FOR ZETA FOR LAYER     1 ZONE     2

     596 UPPER PART EQS.       601 LOWER PART EQS.    BAND WIDTH + 1 =   23
 STRESS PERIOD=  1 TIMESTEP=462 LAYER=  1 ZONE=  2 ACTIVE CELLS= 1197 NUMBER OF EQUATIONS=    1197
 SOLVING FOR ZETA FOR LAYER     2 ZONE     2

     569 UPPER PART EQS.       564 LOWER PART EQS.    BAND WIDTH + 1 =   32
 STRESS PERIOD=  1 TIMESTEP=462 LAYER=  2 ZONE=  2 ACTIVE CELLS= 1133 NUMBER OF EQUATIONS=    1133
 UBUDSV SAVING "      ZETASRF  1" ON UNIT 55 AT TIME STEP462, STRESS PERIOD    1

 HEAD WILL BE SAVED ON UNIT   51 AT END OF TIME STEP  462, STRESS PERIOD    1
 
 SOLVING FOR HEAD 
                                                   Max.-Head-Change                         Max.-Flux-Residual
  Residual-Control   Outer-Iter.   Inner-Iter.     Column Row Layer    Maximum-Head-Change  Column Row Layer    Maximum-Flux-Residual          L2-NORM 
          0                 1           1            23    8     1       0.6463326736E-03      41    8    1         0.5090845700E+00      0.3528939803E+01
          0                 2           1            23   13     2      -0.2518918983E-04      20    9    1         0.6008137644E-02      0.6169623796E-01
          0                 3           1            39   41     2       0.2446492388E-04      41   44    1         0.1307505646E-02      0.2292892336E-01
          0                 4           1            37   35     2       0.1378117735E-04      37   39    2         0.7852695247E-03      0.1543930690E-01
          0                 5           1            34   32     2       0.1952163840E-04      34   30    2         0.6866192191E-03      0.1293258252E-01
          0                 6           1            33   32     1       0.1116885995E-04      33   31    2         0.5963210002E-03      0.1141407926E-01
          0                 7           1            33   31     2       0.1572540631E-04      33   31    2         0.5408613970E-03      0.1010543029E-01
          0                 8           1            32   32     2       0.8475993846E-05      43   25    2         0.4881808496E-03      0.9123971243E-02

    ------------------------------------------------
       NWT REQUIRED            8 OUTER ITERATIONS 
       AND A TOTAL OF          8 INNER ITERATIONS.
    ------------------------------------------------

 OUTPUT CONTROL FOR STRESS PERIOD    1   TIME STEP  463
    SAVE HEAD FOR ALL LAYERS
 SOLVING FOR ZETA FOR LAYER     1 ZONE     2

     599 UPPER PART EQS.       611 LOWER PART EQS.    BAND WIDTH + 1 =   35
 STRESS PERIOD=  1 TIMESTEP=463 LAYER=  1 ZONE=  2 ACTIVE CELLS= 1210 NUMBER OF EQUATIONS=    1210
 SOLVING FOR ZETA FOR LAYER     2 ZONE     2

     573 UPPER PART EQS.       564 LOWER PART EQS.    BAND WIDTH + 1 =   32
 STRESS PERIOD=  1 TIMESTEP=463 LAYER=  2 ZONE=  2 ACTIVE CELLS= 1137 NUMBER OF EQUATIONS=    1137
 UBUDSV SAVING "      ZETASRF  1" ON UNIT 55 AT TIME STEP463, STRESS PERIOD    1

 HEAD WILL BE SAVED ON UNIT   51 AT END OF TIME STEP  463, STRESS PERIOD    1
 
 SOLVING FOR HEAD 
                                                   Max.-Head-Change                         Max.-Flux-Residual
  Residual-Control   Outer-Iter.   Inner-Iter.     Column Row Layer    Maximum-Head-Change  Column Row Layer    Maximum-Flux-Residual          L2-NORM 
          0                 1           1            54   40     1       0.5458205006E-03      54   22    1         0.5049035186E+00      0.3516549331E+01
          0                 2           1            50   23     1      -0.2088157200E-04      50   23    1        -0.7147262934E-02      0.5592108687E-01
          0                 3           1            45   15     2      -0.1505570558E-04      42   14    2        -0.9757644181E-03      0.1609960333E-01
          0                 4           1            29   32     1       0.9387411404E-05      28   28    2         0.5185224900E-03      0.9722051687E-02

    ------------------------------------------------
       NWT REQUIRED            4 OUTER ITERATIONS 
       AND A TOTAL OF          4 INNER ITERATIONS.
    ------------------------------------------------

 OUTPUT CONTROL FOR STRESS PERIOD    1   TIME STEP  464
    SAVE HEAD FOR ALL LAYERS
 SOLVING FOR ZETA FOR LAYER     1 ZONE     2

     617 UPPER PART EQS.       598 LOWER PART EQS.    BAND WIDTH + 1 =   33
 STRESS PERIOD=  1 TIMESTEP=464 LAYER=  1 ZONE=  2 ACTIVE CELLS= 1215 NUMBER OF EQUATIONS=    1215
 SOLVING FOR ZETA FOR LAYER     2 ZONE     2

     571 UPPER PART EQS.       566 LOWER PART EQS.    BAND WIDTH + 1 =   32
 STRESS PERIOD=  1 TIMESTEP=464 LAYER=  2 ZONE=  2 ACTIVE CELLS= 1137 NUMBER OF EQUATIONS=    1137
 UBUDSV SAVING "      ZETASRF  1" ON UNIT 55 AT TIME STEP464, STRESS PERIOD    1

 HEAD WILL BE SAVED ON UNIT   51 AT END OF TIME STEP  464, STRESS PERIOD    1
 
 SOLVING FOR HEAD 
                                                   Max.-Head-Change                         Max.-Flux-Residual
  Residual-Control   Outer-Iter.   Inner-Iter.     Column Row Layer    Maximum-Head-Change  Column Row Layer    Maximum-Flux-Residual          L2-NORM 
          0                 1           1            39   54     1       0.5904304360E-03       8   23    1         0.5212887355E+00      0.2798624211E+01
          0                 2           1            38   50     2      -0.3363239553E-04      36   15    1        -0.6815503782E-02      0.6344707931E-01
          0                 3           1            36   21     1       0.2224471223E-04      43   42    1         0.1401621409E-02      0.2362765873E-01
          0                 4           1            36   38     2       0.1533291736E-04      42   22    2         0.8902051270E-03      0.1702621205E-01
          0                 5           1            33   33     2       0.1869551620E-04      46   34    2         0.7339408213E-03      0.1485301603E-01
          0                 6           1            32   32     2       0.1330357177E-04      33   31    2         0.6446868179E-03      0.1342656389E-01
          0                 7           1            32   32     2       0.1551161961E-04      46   34    2         0.5905944295E-03      0.1200445673E-01
          0                 8           1            32   32     2       0.1054569313E-04      32   32    2         0.5157585609E-03      0.1091162585E-01
          0                 9           1            32   32     2       0.1242033548E-04      32   32    2         0.4710529878E-03      0.9752195748E-02
          0                10           1            32   32     2       0.8398295905E-05      32   32    2         0.4156685674E-03      0.8876369193E-02

    ------------------------------------------------
       NWT REQUIRED           10 OUTER ITERATIONS 
       AND A TOTAL OF         10 INNER ITERATIONS.
    ------------------------------------------------

 OUTPUT CONTROL FOR STRESS PERIOD    1   TIME STEP  465
    SAVE HEAD FOR ALL LAYERS
 SOLVING FOR ZETA FOR LAYER     1 ZONE     2

     600 UPPER PART EQS.       608 LOWER PART EQS.    BAND WIDTH + 1 =   27
 STRESS PERIOD=  1 TIMESTEP=465 LAYER=  1 ZONE=  2 ACTIVE CELLS= 1208 NUMBER OF EQUATIONS=    1208
 SOLVING FOR ZETA FOR LAYER     2 ZONE     2

     567 UPPER PART EQS.       566 LOWER PART EQS.    BAND WIDTH + 1 =   32
 STRESS PERIOD=  1 TIMESTEP=465 LAYER=  2 ZONE=  2 ACTIVE CELLS= 1133 NUMBER OF EQUATIONS=    1133
 UBUDSV SAVING "      ZETASRF  1" ON UNIT 55 AT TIME STEP465, STRESS PERIOD    1

 HEAD WILL BE SAVED ON UNIT   51 AT END OF TIME STEP  465, STRESS PERIOD    1
 
 SOLVING FOR HEAD 
                                                   Max.-Head-Change                         Max.-Flux-Residual
  Residual-Control   Outer-Iter.   Inner-Iter.     Column Row Layer    Maximum-Head-Change  Column Row Layer    Maximum-Flux-Residual          L2-NORM 
          0                 1           1            54   39     1       0.5603125110E-03      54   39    1         0.5124511844E+00      0.3804281428E+01
          0                 2           1            50   21     1      -0.2754926459E-04      50   21    1        -0.6333942838E-02      0.5885791070E-01
          0                 3           1            23   22     1       0.1830018129E-04      52   41    1        -0.1037111071E-02      0.1898194434E-01
          0                 4           1            27   30     1       0.1070898155E-04      29   15    2         0.7116411085E-03      0.1159700855E-01
          0                 5           1            30   30     2       0.1395459122E-04      30   30    2         0.5486445187E-03      0.9029637999E-02
          0                 6           1            28   30     2       0.8727807508E-05      29   15    2         0.4694208472E-03      0.7637756533E-02

    ------------------------------------------------
       NWT REQUIRED            6 OUTER ITERATIONS 
       AND A TOTAL OF          6 INNER ITERATIONS.
    ------------------------------------------------

 OUTPUT CONTROL FOR STRESS PERIOD    1   TIME STEP  466
    SAVE HEAD FOR ALL LAYERS
 SOLVING FOR ZETA FOR LAYER     1 ZONE     2

     610 UPPER PART EQS.       594 LOWER PART EQS.    BAND WIDTH + 1 =   31
 STRESS PERIOD=  1 TIMESTEP=466 LAYER=  1 ZONE=  2 ACTIVE CELLS= 1204 NUMBER OF EQUATIONS=    1204
 SOLVING FOR ZETA FOR LAYER     2 ZONE     2

     571 UPPER PART EQS.       564 LOWER PART EQS.    BAND WIDTH + 1 =   32
 STRESS PERIOD=  1 TIMESTEP=466 LAYER=  2 ZONE=  2 ACTIVE CELLS= 1135 NUMBER OF EQUATIONS=    1135
 UBUDSV SAVING "      ZETASRF  1" ON UNIT 55 AT TIME STEP466, STRESS PERIOD    1

 HEAD WILL BE SAVED ON UNIT   51 AT END OF TIME STEP  466, STRESS PERIOD    1
 
 SOLVING FOR HEAD 
                                                   Max.-Head-Change                         Max.-Flux-Residual
  Residual-Control   Outer-Iter.   Inner-Iter.     Column Row Layer    Maximum-Head-Change  Column Row Layer    Maximum-Flux-Residual          L2-NORM 
          0                 1           1             8   39     1       0.5620094913E-03       8   39    1         0.5007769572E+00      0.3317166424E+01
          0                 2           1            11   33     2      -0.2626378308E-04      35   13    2        -0.6400103712E-02      0.5951676410E-01
          0                 3           1            41   26     1       0.1835801062E-04      43   42    1         0.1046231255E-02      0.1895203003E-01
          0                 4           1            36   27     1       0.1251966516E-04      43   33    2         0.6905217351E-03      0.1282533264E-01
          0                 5           1            33   31     2       0.1536913885E-04      34   30    2         0.5964236387E-03      0.1084997234E-01
          0                 6           1            34   31     1       0.1059321491E-04      43   33    2         0.5307303294E-03      0.9642424437E-02
          0                 7           1            33   31     2       0.1135590944E-04      45   31    2         0.4740131236E-03      0.8603006499E-02
          0                 8           1            33   31     2       0.8463321927E-05      43   33    2         0.4162092883E-03      0.7772267864E-02

    ------------------------------------------------
       NWT REQUIRED            8 OUTER ITERATIONS 
       AND A TOTAL OF          8 INNER ITERATIONS.
    ------------------------------------------------

 OUTPUT CONTROL FOR STRESS PERIOD    1   TIME STEP  467
    SAVE HEAD FOR ALL LAYERS
 SOLVING FOR ZETA FOR LAYER     1 ZONE     2

     600 UPPER PART EQS.       603 LOWER PART EQS.    BAND WIDTH + 1 =   32
 STRESS PERIOD=  1 TIMESTEP=467 LAYER=  1 ZONE=  2 ACTIVE CELLS= 1203 NUMBER OF EQUATIONS=    1203
 SOLVING FOR ZETA FOR LAYER     2 ZONE     2

     569 UPPER PART EQS.       572 LOWER PART EQS.    BAND WIDTH + 1 =   32
 STRESS PERIOD=  1 TIMESTEP=467 LAYER=  2 ZONE=  2 ACTIVE CELLS= 1141 NUMBER OF EQUATIONS=    1141
 UBUDSV SAVING "      ZETASRF  1" ON UNIT 55 AT TIME STEP467, STRESS PERIOD    1

 HEAD WILL BE SAVED ON UNIT   51 AT END OF TIME STEP  467, STRESS PERIOD    1
 
 SOLVING FOR HEAD 
                                                   Max.-Head-Change                         Max.-Flux-Residual
  Residual-Control   Outer-Iter.   Inner-Iter.     Column Row Layer    Maximum-Head-Change  Column Row Layer    Maximum-Flux-Residual          L2-NORM 
          0                 1           1            54   41     1       0.5265053374E-03      41   54    1         0.5035665525E+00      0.3141933248E+01
          0                 2           1            20   50     2      -0.2444631475E-04      51   22    1         0.9675133616E-02      0.5789793232E-01
          0                 3           1            26   21     1       0.1492839626E-04      20   48    2        -0.1047512546E-02      0.1645917581E-01
          0                 4           1            31   26     1       0.9532422253E-05      32   24    2         0.5196191141E-03      0.9750981097E-02

    ------------------------------------------------
       NWT REQUIRED            4 OUTER ITERATIONS 
       AND A TOTAL OF          4 INNER ITERATIONS.
    ------------------------------------------------

 OUTPUT CONTROL FOR STRESS PERIOD    1   TIME STEP  468
    SAVE HEAD FOR ALL LAYERS
 SOLVING FOR ZETA FOR LAYER     1 ZONE     2

     600 UPPER PART EQS.       603 LOWER PART EQS.    BAND WIDTH + 1 =   30
 STRESS PERIOD=  1 TIMESTEP=468 LAYER=  1 ZONE=  2 ACTIVE CELLS= 1203 NUMBER OF EQUATIONS=    1203
 SOLVING FOR ZETA FOR LAYER     2 ZONE     2

     573 UPPER PART EQS.       570 LOWER PART EQS.    BAND WIDTH + 1 =   32
 STRESS PERIOD=  1 TIMESTEP=468 LAYER=  2 ZONE=  2 ACTIVE CELLS= 1143 NUMBER OF EQUATIONS=    1143
 UBUDSV SAVING "      ZETASRF  1" ON UNIT 55 AT TIME STEP468, STRESS PERIOD    1

 HEAD WILL BE SAVED ON UNIT   51 AT END OF TIME STEP  468, STRESS PERIOD    1
 
 SOLVING FOR HEAD 
                                                   Max.-Head-Change                         Max.-Flux-Residual
  Residual-Control   Outer-Iter.   Inner-Iter.     Column Row Layer    Maximum-Head-Change  Column Row Layer    Maximum-Flux-Residual          L2-NORM 
          0                 1           1            43    8     1       0.4753744721E-03      43    8    1         0.4777771082E+00      0.2900720563E+01
          0                 2           1            44   25     1       0.2908065153E-04      31   49    2        -0.5991466416E-02      0.5745009937E-01
          0                 3           1            23   22     1       0.2275787630E-04      45   24    1         0.1369284335E-02      0.2385578062E-01
          0                 4           1            27   26     1       0.1456494021E-04      44   25    1         0.9758238083E-03      0.1639181043E-01
          0                 5           1            30   30     2       0.2025200568E-04      31   29    2         0.7429517148E-03      0.1393664001E-01
          0                 6           1            30   31     1       0.1284727657E-04      44   25    1         0.6703827956E-03      0.1240442172E-01
          0                 7           1            31   31     2       0.1595963913E-04      30   30    2         0.5861527900E-03      0.1106958689E-01
          0                 8           1            30   31     1       0.9880627477E-05      44   25    1         0.5471135781E-03      0.1002599645E-01

    ------------------------------------------------
       NWT REQUIRED            8 OUTER ITERATIONS 
       AND A TOTAL OF          8 INNER ITERATIONS.
    ------------------------------------------------

 OUTPUT CONTROL FOR STRESS PERIOD    1   TIME STEP  469
    SAVE HEAD FOR ALL LAYERS
 SOLVING FOR ZETA FOR LAYER     1 ZONE     2

     614 UPPER PART EQS.       610 LOWER PART EQS.    BAND WIDTH + 1 =   25
 STRESS PERIOD=  1 TIMESTEP=469 LAYER=  1 ZONE=  2 ACTIVE CELLS= 1224 NUMBER OF EQUATIONS=    1224
 SOLVING FOR ZETA FOR LAYER     2 ZONE     2

     573 UPPER PART EQS.       572 LOWER PART EQS.    BAND WIDTH + 1 =   32
 STRESS PERIOD=  1 TIMESTEP=469 LAYER=  2 ZONE=  2 ACTIVE CELLS= 1145 NUMBER OF EQUATIONS=    1145
 UBUDSV SAVING "      ZETASRF  1" ON UNIT 55 AT TIME STEP469, STRESS PERIOD    1

 HEAD WILL BE SAVED ON UNIT   51 AT END OF TIME STEP  469, STRESS PERIOD    1
 
 SOLVING FOR HEAD 
                                                   Max.-Head-Change                         Max.-Flux-Residual
  Residual-Control   Outer-Iter.   Inner-Iter.     Column Row Layer    Maximum-Head-Change  Column Row Layer    Maximum-Flux-Residual          L2-NORM 
          0                 1           1            17   54     1       0.4192042354E-03      17    8    1         0.4429533707E+00      0.2891827000E+01
          0                 2           1            41   12     1       0.1498722416E-04      44    9    1         0.5987299043E-02      0.4796606477E-01
          0                 3           1            23   30     1       0.1457773336E-04      22   31    1         0.6735672482E-03      0.1364266366E-01
          0                 4           1            29   30     1       0.1124236616E-04      28   28    2         0.5484667790E-03      0.9963002691E-02
          0                 5           1            31   31     2       0.1203577639E-04      31   29    2         0.5017474267E-03      0.8505265657E-02
          0                 6           1            30   31     1       0.9105541959E-05      30   30    2         0.4213747990E-03      0.7583252779E-02

    ------------------------------------------------
       NWT REQUIRED            6 OUTER ITERATIONS 
       AND A TOTAL OF          6 INNER ITERATIONS.
    ------------------------------------------------

 OUTPUT CONTROL FOR STRESS PERIOD    1   TIME STEP  470
    SAVE HEAD FOR ALL LAYERS
 SOLVING FOR ZETA FOR LAYER     1 ZONE     2

     612 UPPER PART EQS.       599 LOWER PART EQS.    BAND WIDTH + 1 =   28
 STRESS PERIOD=  1 TIMESTEP=470 LAYER=  1 ZONE=  2 ACTIVE CELLS= 1211 NUMBER OF EQUATIONS=    1211
 SOLVING FOR ZETA FOR LAYER     2 ZONE     2

     565 UPPER PART EQS.       566 LOWER PART EQS.    BAND WIDTH + 1 =   32
 STRESS PERIOD=  1 TIMESTEP=470 LAYER=  2 ZONE=  2 ACTIVE CELLS= 1131 NUMBER OF EQUATIONS=    1131
 UBUDSV SAVING "      ZETASRF  1" ON UNIT 55 AT TIME STEP470, STRESS PERIOD    1

 HEAD WILL BE SAVED ON UNIT   51 AT END OF TIME STEP  470, STRESS PERIOD    1
 
 SOLVING FOR HEAD 
                                                   Max.-Head-Change                         Max.-Flux-Residual
  Residual-Control   Outer-Iter.   Inner-Iter.     Column Row Layer    Maximum-Head-Change  Column Row Layer    Maximum-Flux-Residual          L2-NORM 
          0                 1           1            40    8     1       0.5739930657E-03       8   43    1         0.4584463765E+00      0.3289471558E+01
          0                 2           1            40   12     2      -0.2936494427E-04      36   15    1        -0.6291888664E-02      0.5842233452E-01
          0                 3           1            38   42     2       0.2089739082E-04      36   12    2        -0.1265322528E-02      0.1924964109E-01
          0                 4           1            36   38     2       0.1334070565E-04      37   39    2         0.7177289482E-03      0.1364749674E-01
          0                 5           1            33   33     2       0.1508356403E-04      45   35    2         0.6465949829E-03      0.1185585870E-01
          0                 6           1            32   32     2       0.1149409915E-04      33   31    2         0.5323741800E-03      0.1068554418E-01
          0                 7           1            32   32     2       0.1128834988E-04      45   35    2         0.5409271646E-03      0.9613706898E-02
          0                 8           1            32   32     2       0.9572819276E-05      32   32    2         0.4191558651E-03      0.8700488243E-02

    ------------------------------------------------
       NWT REQUIRED            8 OUTER ITERATIONS 
       AND A TOTAL OF          8 INNER ITERATIONS.
    ------------------------------------------------

 OUTPUT CONTROL FOR STRESS PERIOD    1   TIME STEP  471
    SAVE HEAD FOR ALL LAYERS
 SOLVING FOR ZETA FOR LAYER     1 ZONE     2

     604 UPPER PART EQS.       612 LOWER PART EQS.    BAND WIDTH + 1 =   30
 STRESS PERIOD=  1 TIMESTEP=471 LAYER=  1 ZONE=  2 ACTIVE CELLS= 1216 NUMBER OF EQUATIONS=    1216
 SOLVING FOR ZETA FOR LAYER     2 ZONE     2

     571 UPPER PART EQS.       564 LOWER PART EQS.    BAND WIDTH + 1 =   32
 STRESS PERIOD=  1 TIMESTEP=471 LAYER=  2 ZONE=  2 ACTIVE CELLS= 1135 NUMBER OF EQUATIONS=    1135
 UBUDSV SAVING "      ZETASRF  1" ON UNIT 55 AT TIME STEP471, STRESS PERIOD    1

 HEAD WILL BE SAVED ON UNIT   51 AT END OF TIME STEP  471, STRESS PERIOD    1
 
 SOLVING FOR HEAD 
                                                   Max.-Head-Change                         Max.-Flux-Residual
  Residual-Control   Outer-Iter.   Inner-Iter.     Column Row Layer    Maximum-Head-Change  Column Row Layer    Maximum-Flux-Residual          L2-NORM 
          0                 1           1             8   20     1       0.5620086094E-03      54   44    1         0.4517137980E+00      0.3256363522E+01
          0                 2           1            12   20     2      -0.2360541757E-04       5   22    1         0.5748796667E-02      0.5279384906E-01
          0                 3           1            23   41     2       0.2071718869E-04      18   42    2         0.1093287676E-02      0.1883193771E-01
          0                 4           1            27   37     2       0.1169228062E-04      27   37    2         0.6789611490E-03      0.1288551599E-01
          0                 5           1            30   32     2       0.1611305094E-04      30   34    2         0.5844110037E-03      0.1095498980E-01
          0                 6           1            29   32     1       0.1007761514E-04      29   31    2         0.5092864948E-03      0.9762995222E-02
          0                 7           1            30   32     2       0.1172359016E-04      29   31    2         0.4523284625E-03      0.8704884702E-02
          0                 8           1            29   32     1       0.8185481714E-05      30   30    2         0.3887076198E-03      0.7884643526E-02

    ------------------------------------------------
       NWT REQUIRED            8 OUTER ITERATIONS 
       AND A TOTAL OF          8 INNER ITERATIONS.
    ------------------------------------------------

 OUTPUT CONTROL FOR STRESS PERIOD    1   TIME STEP  472
    SAVE HEAD FOR ALL LAYERS
 SOLVING FOR ZETA FOR LAYER     1 ZONE     2

     599 UPPER PART EQS.       598 LOWER PART EQS.    BAND WIDTH + 1 =   24
 STRESS PERIOD=  1 TIMESTEP=472 LAYER=  1 ZONE=  2 ACTIVE CELLS= 1197 NUMBER OF EQUATIONS=    1197
 SOLVING FOR ZETA FOR LAYER     2 ZONE     2

     569 UPPER PART EQS.       572 LOWER PART EQS.    BAND WIDTH + 1 =   32
 STRESS PERIOD=  1 TIMESTEP=472 LAYER=  2 ZONE=  2 ACTIVE CELLS= 1141 NUMBER OF EQUATIONS=    1141
 UBUDSV SAVING "      ZETASRF  1" ON UNIT 55 AT TIME STEP472, STRESS PERIOD    1

 HEAD WILL BE SAVED ON UNIT   51 AT END OF TIME STEP  472, STRESS PERIOD    1
 
 SOLVING FOR HEAD 
                                                   Max.-Head-Change                         Max.-Flux-Residual
  Residual-Control   Outer-Iter.   Inner-Iter.     Column Row Layer    Maximum-Head-Change  Column Row Layer    Maximum-Flux-Residual          L2-NORM 
          0                 1           1            20   54     1       0.5258097127E-03       8   42    1         0.4719996397E+00      0.2906343300E+01
          0                 2           1            11   43     2      -0.2233749074E-04      50   21    1        -0.5034370600E-02      0.5234451592E-01
          0                 3           1            41   28     1       0.1726579932E-04      11   46    1        -0.1123385609E-02      0.1908166231E-01
          0                 4           1            35   31     2       0.1062122250E-04      37   31    2         0.6084958494E-03      0.1195027771E-01
          0                 5           1            31   31     2       0.1501567914E-04      33   31    2         0.5646831265E-03      0.9520573065E-02
          0                 6           1            31   31     2       0.8940877992E-05      30   30    2         0.4750854119E-03      0.8201066708E-02

    ------------------------------------------------
       NWT REQUIRED            6 OUTER ITERATIONS 
       AND A TOTAL OF          6 INNER ITERATIONS.
    ------------------------------------------------

 OUTPUT CONTROL FOR STRESS PERIOD    1   TIME STEP  473
    SAVE HEAD FOR ALL LAYERS
 SOLVING FOR ZETA FOR LAYER     1 ZONE     2

     603 UPPER PART EQS.       611 LOWER PART EQS.    BAND WIDTH + 1 =   35
 STRESS PERIOD=  1 TIMESTEP=473 LAYER=  1 ZONE=  2 ACTIVE CELLS= 1214 NUMBER OF EQUATIONS=    1214
 SOLVING FOR ZETA FOR LAYER     2 ZONE     2

     573 UPPER PART EQS.       570 LOWER PART EQS.    BAND WIDTH + 1 =   32
 STRESS PERIOD=  1 TIMESTEP=473 LAYER=  2 ZONE=  2 ACTIVE CELLS= 1143 NUMBER OF EQUATIONS=    1143
 UBUDSV SAVING "      ZETASRF  1" ON UNIT 55 AT TIME STEP473, STRESS PERIOD    1

 HEAD WILL BE SAVED ON UNIT   51 AT END OF TIME STEP  473, STRESS PERIOD    1
 
 SOLVING FOR HEAD 
                                                   Max.-Head-Change                         Max.-Flux-Residual
  Residual-Control   Outer-Iter.   Inner-Iter.     Column Row Layer    Maximum-Head-Change  Column Row Layer    Maximum-Flux-Residual          L2-NORM 
          0                 1           1            43    8     1       0.4731794230E-03      43    8    1         0.4652945558E+00      0.2672393054E+01
          0                 2           1            36   12     2      -0.1950557373E-04      31   49    2        -0.5205908193E-02      0.4947394948E-01
          0                 3           1            35   22     1       0.1497472388E-04      37   20    1         0.7632952848E-03      0.1478227134E-01
          0                 4           1            32   27     1       0.9676314338E-05      32   24    2         0.5302417205E-03      0.9411649189E-02

    ------------------------------------------------
       NWT REQUIRED            4 OUTER ITERATIONS 
       AND A TOTAL OF          4 INNER ITERATIONS.
    ------------------------------------------------

 OUTPUT CONTROL FOR STRESS PERIOD    1   TIME STEP  474
    SAVE HEAD FOR ALL LAYERS
 SOLVING FOR ZETA FOR LAYER     1 ZONE     2

     600 UPPER PART EQS.       601 LOWER PART EQS.    BAND WIDTH + 1 =   24
 STRESS PERIOD=  1 TIMESTEP=474 LAYER=  1 ZONE=  2 ACTIVE CELLS= 1201 NUMBER OF EQUATIONS=    1201
 SOLVING FOR ZETA FOR LAYER     2 ZONE     2

     573 UPPER PART EQS.       572 LOWER PART EQS.    BAND WIDTH + 1 =   32
 STRESS PERIOD=  1 TIMESTEP=474 LAYER=  2 ZONE=  2 ACTIVE CELLS= 1145 NUMBER OF EQUATIONS=    1145
 UBUDSV SAVING "      ZETASRF  1" ON UNIT 55 AT TIME STEP474, STRESS PERIOD    1

 HEAD WILL BE SAVED ON UNIT   51 AT END OF TIME STEP  474, STRESS PERIOD    1
 
 SOLVING FOR HEAD 
                                                   Max.-Head-Change                         Max.-Flux-Residual
  Residual-Control   Outer-Iter.   Inner-Iter.     Column Row Layer    Maximum-Head-Change  Column Row Layer    Maximum-Flux-Residual          L2-NORM 
          0                 1           1            45   54     1       0.4208521744E-03       8   17    1         0.4441566645E+00      0.2933748847E+01
          0                 2           1            44   25     1       0.2788035719E-04      44   25    1         0.5557756733E-02      0.5495235620E-01
          0                 3           1            40   38     2       0.2200263668E-04      45   24    1         0.1265730594E-02      0.2200884067E-01
          0                 4           1            36   28     2       0.1460267181E-04      44   25    1         0.9215733115E-03      0.1552700896E-01
          0                 5           1            33   31     2       0.1945140421E-04      33   31    2         0.7105013340E-03      0.1343173084E-01
          0                 6           1            31   31     2       0.1214112702E-04      44   25    1         0.6815231596E-03      0.1202929515E-01
          0                 7           1            32   30     2       0.1544750308E-04      33   31    2         0.5619115956E-03      0.1076608014E-01
          0                 8           1            31   31     2       0.9381213184E-05      44   25    1         0.5510423879E-03      0.9753130198E-02

    ------------------------------------------------
       NWT REQUIRED            8 OUTER ITERATIONS 
       AND A TOTAL OF          8 INNER ITERATIONS.
    ------------------------------------------------

 OUTPUT CONTROL FOR STRESS PERIOD    1   TIME STEP  475
    SAVE HEAD FOR ALL LAYERS
 SOLVING FOR ZETA FOR LAYER     1 ZONE     2

     612 UPPER PART EQS.       613 LOWER PART EQS.    BAND WIDTH + 1 =   32
 STRESS PERIOD=  1 TIMESTEP=475 LAYER=  1 ZONE=  2 ACTIVE CELLS= 1225 NUMBER OF EQUATIONS=    1225
 SOLVING FOR ZETA FOR LAYER     2 ZONE     2

     569 UPPER PART EQS.       566 LOWER PART EQS.    BAND WIDTH + 1 =   33
 STRESS PERIOD=  1 TIMESTEP=475 LAYER=  2 ZONE=  2 ACTIVE CELLS= 1135 NUMBER OF EQUATIONS=    1135
 UBUDSV SAVING "      ZETASRF  1" ON UNIT 55 AT TIME STEP475, STRESS PERIOD    1

 HEAD WILL BE SAVED ON UNIT   51 AT END OF TIME STEP  475, STRESS PERIOD    1
 
 SOLVING FOR HEAD 
                                                   Max.-Head-Change                         Max.-Flux-Residual
  Residual-Control   Outer-Iter.   Inner-Iter.     Column Row Layer    Maximum-Head-Change  Column Row Layer    Maximum-Flux-Residual          L2-NORM 
          0                 1           1            42    8     1       0.4986576882E-03      42    8    1         0.4707465120E+00      0.2976282084E+01
          0                 2           1            43   13     2      -0.1646936375E-04      36   48    2         0.5310639939E-02      0.5015512192E-01
          0                 3           1            25   22     1       0.1494957675E-04      26   18    2         0.7716860683E-03      0.1460222442E-01
          0                 4           1            28   29     1       0.1162664927E-04      17   39    2         0.6319962133E-03      0.1087030548E-01
          0                 5           1            29   31     2       0.1234715566E-04      30   30    2         0.5068076488E-03      0.9446994599E-02
          0                 6           1            29   32     1       0.9639081224E-05      29   31    2         0.4429790795E-03      0.8468584634E-02

    ------------------------------------------------
       NWT REQUIRED            6 OUTER ITERATIONS 
       AND A TOTAL OF          6 INNER ITERATIONS.
    ------------------------------------------------

 OUTPUT CONTROL FOR STRESS PERIOD    1   TIME STEP  476
    SAVE HEAD FOR ALL LAYERS
 SOLVING FOR ZETA FOR LAYER     1 ZONE     2

     599 UPPER PART EQS.       601 LOWER PART EQS.    BAND WIDTH + 1 =   28
 STRESS PERIOD=  1 TIMESTEP=476 LAYER=  1 ZONE=  2 ACTIVE CELLS= 1200 NUMBER OF EQUATIONS=    1200
 SOLVING FOR ZETA FOR LAYER     2 ZONE     2

     571 UPPER PART EQS.       564 LOWER PART EQS.    BAND WIDTH + 1 =   34
 STRESS PERIOD=  1 TIMESTEP=476 LAYER=  2 ZONE=  2 ACTIVE CELLS= 1135 NUMBER OF EQUATIONS=    1135
 UBUDSV SAVING "      ZETASRF  1" ON UNIT 55 AT TIME STEP476, STRESS PERIOD    1

 HEAD WILL BE SAVED ON UNIT   51 AT END OF TIME STEP  476, STRESS PERIOD    1
 
 SOLVING FOR HEAD 
                                                   Max.-Head-Change                         Max.-Flux-Residual
  Residual-Control   Outer-Iter.   Inner-Iter.     Column Row Layer    Maximum-Head-Change  Column Row Layer    Maximum-Flux-Residual          L2-NORM 
          0                 1           1            21    8     1       0.5221531787E-03      21    8    1         0.4827996124E+00      0.3533694177E+01
          0                 2           1            36   17     1       0.2443757252E-04      30   50    2        -0.5201292132E-02      0.5762132628E-01
          0                 3           1            38   42     2       0.2042692094E-04      43   42    1         0.1217778792E-02      0.2041950149E-01
          0                 4           1            35   37     2       0.1256762348E-04      32   48    2         0.7216614588E-03      0.1360086908E-01
          0                 5           1            32   32     2       0.1603163780E-04      33   35    2         0.6134917758E-03      0.1143460739E-01
          0                 6           1            32   32     2       0.1096399609E-04      33   31    2         0.5397235545E-03      0.1016879788E-01
          0                 7           1            32   32     2       0.1233822295E-04      32   32    2         0.4790619640E-03      0.9093121933E-02
          0                 8           1            32   32     2       0.8642318490E-05      33   31    2         0.4098465397E-03      0.8246845963E-02

    ------------------------------------------------
       NWT REQUIRED            8 OUTER ITERATIONS 
       AND A TOTAL OF          8 INNER ITERATIONS.
    ------------------------------------------------

 OUTPUT CONTROL FOR STRESS PERIOD    1   TIME STEP  477
    SAVE HEAD FOR ALL LAYERS
 SOLVING FOR ZETA FOR LAYER     1 ZONE     2

     598 UPPER PART EQS.       609 LOWER PART EQS.    BAND WIDTH + 1 =   35
 STRESS PERIOD=  1 TIMESTEP=477 LAYER=  1 ZONE=  2 ACTIVE CELLS= 1207 NUMBER OF EQUATIONS=    1207
 SOLVING FOR ZETA FOR LAYER     2 ZONE     2

     575 UPPER PART EQS.       572 LOWER PART EQS.    BAND WIDTH + 1 =   34
 STRESS PERIOD=  1 TIMESTEP=477 LAYER=  2 ZONE=  2 ACTIVE CELLS= 1147 NUMBER OF EQUATIONS=    1147
 UBUDSV SAVING "      ZETASRF  1" ON UNIT 55 AT TIME STEP477, STRESS PERIOD    1

 HEAD WILL BE SAVED ON UNIT   51 AT END OF TIME STEP  477, STRESS PERIOD    1
 
 SOLVING FOR HEAD 
                                                   Max.-Head-Change                         Max.-Flux-Residual
  Residual-Control   Outer-Iter.   Inner-Iter.     Column Row Layer    Maximum-Head-Change  Column Row Layer    Maximum-Flux-Residual          L2-NORM 
          0                 1           1            41   54     1       0.5186871753E-03      41   54    1         0.4709001241E+00      0.3212902058E+01
          0                 2           1            10   42     2      -0.1555736577E-04      51   22    1        -0.5600121199E-02      0.5033733224E-01
          0                 3           1            24   21     1       0.1628246006E-04      45   40    1         0.8327910037E-03      0.1661237778E-01
          0                 4           1            28   27     1       0.1074732002E-04      43   25    2         0.6176014310E-03      0.1160316790E-01
          0                 5           1            31   31     2       0.1431339579E-04      31   29    2         0.5327407771E-03      0.1000346142E-01
          0                 6           1            31   31     2       0.9433996581E-05      30   30    2         0.4644263674E-03      0.8989003653E-02

    ------------------------------------------------
       NWT REQUIRED            6 OUTER ITERATIONS 
       AND A TOTAL OF          6 INNER ITERATIONS.
    ------------------------------------------------

 OUTPUT CONTROL FOR STRESS PERIOD    1   TIME STEP  478
    SAVE HEAD FOR ALL LAYERS
 SOLVING FOR ZETA FOR LAYER     1 ZONE     2

     612 UPPER PART EQS.       593 LOWER PART EQS.    BAND WIDTH + 1 =   36
 STRESS PERIOD=  1 TIMESTEP=478 LAYER=  1 ZONE=  2 ACTIVE CELLS= 1205 NUMBER OF EQUATIONS=    1205
 SOLVING FOR ZETA FOR LAYER     2 ZONE     2

     583 UPPER PART EQS.       570 LOWER PART EQS.    BAND WIDTH + 1 =   34
 STRESS PERIOD=  1 TIMESTEP=478 LAYER=  2 ZONE=  2 ACTIVE CELLS= 1153 NUMBER OF EQUATIONS=    1153
 UBUDSV SAVING "      ZETASRF  1" ON UNIT 55 AT TIME STEP478, STRESS PERIOD    1

 HEAD WILL BE SAVED ON UNIT   51 AT END OF TIME STEP  478, STRESS PERIOD    1
 
 SOLVING FOR HEAD 
                                                   Max.-Head-Change                         Max.-Flux-Residual
  Residual-Control   Outer-Iter.   Inner-Iter.     Column Row Layer    Maximum-Head-Change  Column Row Layer    Maximum-Flux-Residual          L2-NORM 
          0                 1           1            21   54     1       0.5248750034E-03      54   41    1         0.4701891372E+00      0.2949461049E+01
          0                 2           1            32   50     2      -0.1957520995E-04      57   20    1         0.5292080949E-02      0.5141468351E-01
          0                 3           1            40   27     1       0.1697927858E-04      51   42    1        -0.8582489395E-03      0.1700319999E-01
          0                 4           1            35   29     2       0.1084681435E-04      36   28    2         0.6011150775E-03      0.1082484039E-01
          0                 5           1            32   30     2       0.1346446379E-04      31   29    2         0.5434861957E-03      0.8681049863E-02
          0                 6           1            31   30     1       0.8838742082E-05      30   30    2         0.4426848420E-03      0.7488780374E-02

    ------------------------------------------------
       NWT REQUIRED            6 OUTER ITERATIONS 
       AND A TOTAL OF          6 INNER ITERATIONS.
    ------------------------------------------------

 OUTPUT CONTROL FOR STRESS PERIOD    1   TIME STEP  479
    SAVE HEAD FOR ALL LAYERS
 SOLVING FOR ZETA FOR LAYER     1 ZONE     2

     597 UPPER PART EQS.       613 LOWER PART EQS.    BAND WIDTH + 1 =   42
 STRESS PERIOD=  1 TIMESTEP=479 LAYER=  1 ZONE=  2 ACTIVE CELLS= 1210 NUMBER OF EQUATIONS=    1210
 SOLVING FOR ZETA FOR LAYER     2 ZONE     2

     585 UPPER PART EQS.       572 LOWER PART EQS.    BAND WIDTH + 1 =   34
 STRESS PERIOD=  1 TIMESTEP=479 LAYER=  2 ZONE=  2 ACTIVE CELLS= 1157 NUMBER OF EQUATIONS=    1157
 UBUDSV SAVING "      ZETASRF  1" ON UNIT 55 AT TIME STEP479, STRESS PERIOD    1

 HEAD WILL BE SAVED ON UNIT   51 AT END OF TIME STEP  479, STRESS PERIOD    1
 
 SOLVING FOR HEAD 
                                                   Max.-Head-Change                         Max.-Flux-Residual
  Residual-Control   Outer-Iter.   Inner-Iter.     Column Row Layer    Maximum-Head-Change  Column Row Layer    Maximum-Flux-Residual          L2-NORM 
          0                 1           1             8   20     1       0.5072721279E-03       8   20    1         0.4807070665E+00      0.2652409968E+01
          0                 2           1            40   12     2      -0.1713689337E-04      20   15    1        -0.4881997943E-02      0.4881364495E-01
          0                 3           1            28   21     1       0.1380263409E-04      25   19    2         0.7053398863E-03      0.1409271080E-01
          0                 4           1            30   27     1       0.9984713981E-05      31   25    2         0.5114708295E-03      0.9439358587E-02

    ------------------------------------------------
       NWT REQUIRED            4 OUTER ITERATIONS 
       AND A TOTAL OF          4 INNER ITERATIONS.
    ------------------------------------------------

 OUTPUT CONTROL FOR STRESS PERIOD    1   TIME STEP  480
    SAVE HEAD FOR ALL LAYERS
 SOLVING FOR ZETA FOR LAYER     1 ZONE     2

     601 UPPER PART EQS.       600 LOWER PART EQS.    BAND WIDTH + 1 =   27
 STRESS PERIOD=  1 TIMESTEP=480 LAYER=  1 ZONE=  2 ACTIVE CELLS= 1201 NUMBER OF EQUATIONS=    1201
 SOLVING FOR ZETA FOR LAYER     2 ZONE     2

     583 UPPER PART EQS.       566 LOWER PART EQS.    BAND WIDTH + 1 =   34
 STRESS PERIOD=  1 TIMESTEP=480 LAYER=  2 ZONE=  2 ACTIVE CELLS= 1149 NUMBER OF EQUATIONS=    1149
 UBUDSV SAVING "      ZETASRF  1" ON UNIT 55 AT TIME STEP480, STRESS PERIOD    1

 HEAD WILL BE SAVED ON UNIT   51 AT END OF TIME STEP  480, STRESS PERIOD    1
 
 SOLVING FOR HEAD 
                                                   Max.-Head-Change                         Max.-Flux-Residual
  Residual-Control   Outer-Iter.   Inner-Iter.     Column Row Layer    Maximum-Head-Change  Column Row Layer    Maximum-Flux-Residual          L2-NORM 
          0                 1           1            42   54     1       0.5092715334E-03      42   54    1         0.4808694594E+00      0.3257162081E+01
          0                 2           1            19   22     1       0.2768200879E-04      31   13    2        -0.5637080473E-02      0.5954207597E-01
          0                 3           1            23   22     1       0.2309663810E-04      45   24    1         0.1244525389E-02      0.2420105141E-01
          0                 4           1            27   37     2       0.1436900170E-04      29   15    2         0.9119842602E-03      0.1689545622E-01
          0                 5           1            31   31     2       0.2052573169E-04      31   33    2         0.7376073900E-03      0.1457317513E-01
          0                 6           1            30   31     1       0.1320763243E-04      29   15    2         0.6976435969E-03      0.1304263233E-01
          0                 7           1            31   31     2       0.1591655807E-04      17   27    2         0.6070449251E-03      0.1168547560E-01
          0                 8           1            30   31     1       0.1060500747E-04      29   15    2         0.5725160358E-03      0.1057871430E-01
          0                 9           1            31   31     2       0.1184893278E-04      17   27    2         0.4957638679E-03      0.9498113922E-02
          0                10           1            30   31     1       0.8668233146E-05      29   15    2         0.4684650076E-03      0.8610219956E-02

    ------------------------------------------------
       NWT REQUIRED           10 OUTER ITERATIONS 
       AND A TOTAL OF         10 INNER ITERATIONS.
    ------------------------------------------------

 OUTPUT CONTROL FOR STRESS PERIOD    1   TIME STEP  481
    SAVE HEAD FOR ALL LAYERS
 SOLVING FOR ZETA FOR LAYER     1 ZONE     2

     611 UPPER PART EQS.       618 LOWER PART EQS.    BAND WIDTH + 1 =   33
 STRESS PERIOD=  1 TIMESTEP=481 LAYER=  1 ZONE=  2 ACTIVE CELLS= 1229 NUMBER OF EQUATIONS=    1229
 SOLVING FOR ZETA FOR LAYER     2 ZONE     2

     585 UPPER PART EQS.       564 LOWER PART EQS.    BAND WIDTH + 1 =   34
 STRESS PERIOD=  1 TIMESTEP=481 LAYER=  2 ZONE=  2 ACTIVE CELLS= 1149 NUMBER OF EQUATIONS=    1149
 UBUDSV SAVING "      ZETASRF  1" ON UNIT 55 AT TIME STEP481, STRESS PERIOD    1

 HEAD WILL BE SAVED ON UNIT   51 AT END OF TIME STEP  481, STRESS PERIOD    1
 
 SOLVING FOR HEAD 
                                                   Max.-Head-Change                         Max.-Flux-Residual
  Residual-Control   Outer-Iter.   Inner-Iter.     Column Row Layer    Maximum-Head-Change  Column Row Layer    Maximum-Flux-Residual          L2-NORM 
          0                 1           1            20    8     1       0.5055817982E-03       8   42    1         0.4760393420E+00      0.2715501725E+01
          0                 2           1            11   33     2      -0.1675362019E-04      36   15    1         0.6251100363E-02      0.4664769251E-01
          0                 3           1            23   30     1       0.1213589785E-04      20   16    2        -0.6693412023E-03      0.1169208837E-01
          0                 4           1            30   31     1       0.8645227082E-05      30   30    2         0.4581279073E-03      0.7653406558E-02

    ------------------------------------------------
       NWT REQUIRED            4 OUTER ITERATIONS 
       AND A TOTAL OF          4 INNER ITERATIONS.
    ------------------------------------------------

 OUTPUT CONTROL FOR STRESS PERIOD    1   TIME STEP  482
    SAVE HEAD FOR ALL LAYERS
 SOLVING FOR ZETA FOR LAYER     1 ZONE     2

     600 UPPER PART EQS.       590 LOWER PART EQS.    BAND WIDTH + 1 =   26
 STRESS PERIOD=  1 TIMESTEP=482 LAYER=  1 ZONE=  2 ACTIVE CELLS= 1190 NUMBER OF EQUATIONS=    1190
 SOLVING FOR ZETA FOR LAYER     2 ZONE     2

     585 UPPER PART EQS.       572 LOWER PART EQS.    BAND WIDTH + 1 =   34
 STRESS PERIOD=  1 TIMESTEP=482 LAYER=  2 ZONE=  2 ACTIVE CELLS= 1157 NUMBER OF EQUATIONS=    1157
 UBUDSV SAVING "      ZETASRF  1" ON UNIT 55 AT TIME STEP482, STRESS PERIOD    1

 HEAD WILL BE SAVED ON UNIT   51 AT END OF TIME STEP  482, STRESS PERIOD    1
 
 SOLVING FOR HEAD 
                                                   Max.-Head-Change                         Max.-Flux-Residual
  Residual-Control   Outer-Iter.   Inner-Iter.     Column Row Layer    Maximum-Head-Change  Column Row Layer    Maximum-Flux-Residual          L2-NORM 
          0                 1           1            54   42     1       0.5080082906E-03      54   42    1         0.4797603152E+00      0.3079764162E+01
          0                 2           1            41   44     1       0.2379576755E-04      36   15    1        -0.5575918168E-02      0.5551352916E-01
          0                 3           1            38   21     1       0.1879645090E-04      43   42    1         0.1073774980E-02      0.1916660752E-01
          0                 4           1            35   26     1       0.1114725455E-04      36   25    1         0.6283561330E-03      0.1202972223E-01
          0                 5           1            33   31     2       0.1382665446E-04      33   31    2         0.5488343386E-03      0.9693234572E-02
          0                 6           1            33   31     2       0.9717357520E-05      33   31    2         0.4807215413E-03      0.8449886796E-02

    ------------------------------------------------
       NWT REQUIRED            6 OUTER ITERATIONS 
       AND A TOTAL OF          6 INNER ITERATIONS.
    ------------------------------------------------

 OUTPUT CONTROL FOR STRESS PERIOD    1   TIME STEP  483
    SAVE HEAD FOR ALL LAYERS
 SOLVING FOR ZETA FOR LAYER     1 ZONE     2

     596 UPPER PART EQS.       614 LOWER PART EQS.    BAND WIDTH + 1 =   35
 STRESS PERIOD=  1 TIMESTEP=483 LAYER=  1 ZONE=  2 ACTIVE CELLS= 1210 NUMBER OF EQUATIONS=    1210
 SOLVING FOR ZETA FOR LAYER     2 ZONE     2

     587 UPPER PART EQS.       570 LOWER PART EQS.    BAND WIDTH + 1 =   34
 STRESS PERIOD=  1 TIMESTEP=483 LAYER=  2 ZONE=  2 ACTIVE CELLS= 1157 NUMBER OF EQUATIONS=    1157
 UBUDSV SAVING "      ZETASRF  1" ON UNIT 55 AT TIME STEP483, STRESS PERIOD    1

 HEAD WILL BE SAVED ON UNIT   51 AT END OF TIME STEP  483, STRESS PERIOD    1
 
 SOLVING FOR HEAD 
                                                   Max.-Head-Change                         Max.-Flux-Residual
  Residual-Control   Outer-Iter.   Inner-Iter.     Column Row Layer    Maximum-Head-Change  Column Row Layer    Maximum-Flux-Residual          L2-NORM 
          0                 1           1            44   54     1       0.4506549273E-03      44   54    1         0.4532567976E+00      0.2544047825E+01
          0                 2           1            32   50     2      -0.1710614904E-04      20   15    1        -0.4831115955E-02      0.4519296872E-01
          0                 3           1            24   21     1       0.1804409162E-04      25   20    1         0.9096027921E-03      0.1662516420E-01
          0                 4           1            28   29     1       0.1090543832E-04      27   26    1         0.5963187583E-03      0.1130261153E-01
          0                 5           1            30   31     1       0.1441565263E-04      30   30    2         0.5530264303E-03      0.9582415997E-02
          0                 6           1            29   32     1       0.9595985138E-05      29   31    2         0.4697273749E-03      0.8506596765E-02

    ------------------------------------------------
       NWT REQUIRED            6 OUTER ITERATIONS 
       AND A TOTAL OF          6 INNER ITERATIONS.
    ------------------------------------------------

 OUTPUT CONTROL FOR STRESS PERIOD    1   TIME STEP  484
    SAVE HEAD FOR ALL LAYERS
 SOLVING FOR ZETA FOR LAYER     1 ZONE     2

     605 UPPER PART EQS.       605 LOWER PART EQS.    BAND WIDTH + 1 =   26
 STRESS PERIOD=  1 TIMESTEP=484 LAYER=  1 ZONE=  2 ACTIVE CELLS= 1210 NUMBER OF EQUATIONS=    1210
 SOLVING FOR ZETA FOR LAYER     2 ZONE     2

     585 UPPER PART EQS.       572 LOWER PART EQS.    BAND WIDTH + 1 =   34
 STRESS PERIOD=  1 TIMESTEP=484 LAYER=  2 ZONE=  2 ACTIVE CELLS= 1157 NUMBER OF EQUATIONS=    1157
 UBUDSV SAVING "      ZETASRF  1" ON UNIT 55 AT TIME STEP484, STRESS PERIOD    1

 HEAD WILL BE SAVED ON UNIT   51 AT END OF TIME STEP  484, STRESS PERIOD    1
 
 SOLVING FOR HEAD 
                                                   Max.-Head-Change                         Max.-Flux-Residual
  Residual-Control   Outer-Iter.   Inner-Iter.     Column Row Layer    Maximum-Head-Change  Column Row Layer    Maximum-Flux-Residual          L2-NORM 
          0                 1           1             8   43     1       0.4788705155E-03       8   43    1         0.4662587396E+00      0.2728963850E+01
          0                 2           1            44   25     1       0.1917905988E-04      42   47    1         0.5017515842E-02      0.4708584405E-01
          0                 3           1            41   26     1       0.1728703833E-04      42   43    1         0.9238707013E-03      0.1856854598E-01
          0                 4           1            35   28     1       0.1155377731E-04      44   25    1         0.6552712833E-03      0.1318948744E-01
          0                 5           1            32   32     2       0.1678609688E-04      33   31    2         0.5919255150E-03      0.1136899692E-01
          0                 6           1            31   31     2       0.1007534712E-04      30   30    2         0.5205356974E-03      0.1022714704E-01
          0                 7           1            31   31     2       0.1306830192E-04      33   31    2         0.4700504373E-03      0.9095944377E-02
          0                 8           1            31   31     2       0.7880208126E-05      30   30    2         0.4002333593E-03      0.8281938839E-02

    ------------------------------------------------
       NWT REQUIRED            8 OUTER ITERATIONS 
       AND A TOTAL OF          8 INNER ITERATIONS.
    ------------------------------------------------

 OUTPUT CONTROL FOR STRESS PERIOD    1   TIME STEP  485
    SAVE HEAD FOR ALL LAYERS
 SOLVING FOR ZETA FOR LAYER     1 ZONE     2

     606 UPPER PART EQS.       611 LOWER PART EQS.    BAND WIDTH + 1 =   39
 STRESS PERIOD=  1 TIMESTEP=485 LAYER=  1 ZONE=  2 ACTIVE CELLS= 1217 NUMBER OF EQUATIONS=    1217
 SOLVING FOR ZETA FOR LAYER     2 ZONE     2

     583 UPPER PART EQS.       566 LOWER PART EQS.    BAND WIDTH + 1 =   34
 STRESS PERIOD=  1 TIMESTEP=485 LAYER=  2 ZONE=  2 ACTIVE CELLS= 1149 NUMBER OF EQUATIONS=    1149
 UBUDSV SAVING "      ZETASRF  1" ON UNIT 55 AT TIME STEP485, STRESS PERIOD    1

 HEAD WILL BE SAVED ON UNIT   51 AT END OF TIME STEP  485, STRESS PERIOD    1
 
 SOLVING FOR HEAD 
                                                   Max.-Head-Change                         Max.-Flux-Residual
  Residual-Control   Outer-Iter.   Inner-Iter.     Column Row Layer    Maximum-Head-Change  Column Row Layer    Maximum-Flux-Residual          L2-NORM 
          0                 1           1            43   54     1       0.4790949480E-03      43   54    1         0.4670152288E+00      0.3166409185E+01
          0                 2           1            40   12     2      -0.1639166608E-04      46   36    2        -0.5245695269E-02      0.5266873424E-01
          0                 3           1            35   22     1       0.1166414747E-04      42   10    2        -0.6921315739E-03      0.1238655561E-01
          0                 4           1            32   29     1       0.9060062806E-05      32   24    2         0.4513273465E-03      0.7958976990E-02

    ------------------------------------------------
       NWT REQUIRED            4 OUTER ITERATIONS 
       AND A TOTAL OF          4 INNER ITERATIONS.
    ------------------------------------------------

 OUTPUT CONTROL FOR STRESS PERIOD    1   TIME STEP  486
    SAVE HEAD FOR ALL LAYERS
 SOLVING FOR ZETA FOR LAYER     1 ZONE     2

     607 UPPER PART EQS.       588 LOWER PART EQS.    BAND WIDTH + 1 =   34
 STRESS PERIOD=  1 TIMESTEP=486 LAYER=  1 ZONE=  2 ACTIVE CELLS= 1195 NUMBER OF EQUATIONS=    1195
 SOLVING FOR ZETA FOR LAYER     2 ZONE     2

     585 UPPER PART EQS.       566 LOWER PART EQS.    BAND WIDTH + 1 =   34
 STRESS PERIOD=  1 TIMESTEP=486 LAYER=  2 ZONE=  2 ACTIVE CELLS= 1151 NUMBER OF EQUATIONS=    1151
 UBUDSV SAVING "      ZETASRF  1" ON UNIT 55 AT TIME STEP486, STRESS PERIOD    1

 HEAD WILL BE SAVED ON UNIT   51 AT END OF TIME STEP  486, STRESS PERIOD    1
 
 SOLVING FOR HEAD 
                                                   Max.-Head-Change                         Max.-Flux-Residual
  Residual-Control   Outer-Iter.   Inner-Iter.     Column Row Layer    Maximum-Head-Change  Column Row Layer    Maximum-Flux-Residual          L2-NORM 
          0                 1           1            19    8     1       0.4964598017E-03      54   45    1         0.4222397978E+00      0.2859971532E+01
          0                 2           1            19   22     1       0.2687249883E-04      20   15    1        -0.5334250420E-02      0.6090766042E-01
          0                 3           1            23   22     1       0.2192323246E-04      23   22    1         0.1212351004E-02      0.2348134783E-01
          0                 4           1            28   36     2       0.1326847763E-04      44   25    1         0.8182979345E-03      0.1556036898E-01
          0                 5           1            31   31     2       0.1857438660E-04      32   28    2         0.6832171570E-03      0.1313612379E-01
          0                 6           1            30   31     1       0.1213907062E-04      30   30    2         0.6094153669E-03      0.1166898318E-01
          0                 7           1            31   31     2       0.1444835097E-04      32   32    2         0.5459039539E-03      0.1044412720E-01
          0                 8           1            30   31     1       0.9587321914E-05      44   25    1         0.4702335749E-03      0.9447060380E-02

    ------------------------------------------------
       NWT REQUIRED            8 OUTER ITERATIONS 
       AND A TOTAL OF          8 INNER ITERATIONS.
    ------------------------------------------------

 OUTPUT CONTROL FOR STRESS PERIOD    1   TIME STEP  487
    SAVE HEAD FOR ALL LAYERS
 SOLVING FOR ZETA FOR LAYER     1 ZONE     2

     606 UPPER PART EQS.       617 LOWER PART EQS.    BAND WIDTH + 1 =   35
 STRESS PERIOD=  1 TIMESTEP=487 LAYER=  1 ZONE=  2 ACTIVE CELLS= 1223 NUMBER OF EQUATIONS=    1223
 SOLVING FOR ZETA FOR LAYER     2 ZONE     2

     585 UPPER PART EQS.       570 LOWER PART EQS.    BAND WIDTH + 1 =   34
 STRESS PERIOD=  1 TIMESTEP=487 LAYER=  2 ZONE=  2 ACTIVE CELLS= 1155 NUMBER OF EQUATIONS=    1155
 UBUDSV SAVING "      ZETASRF  1" ON UNIT 55 AT TIME STEP487, STRESS PERIOD    1

 HEAD WILL BE SAVED ON UNIT   51 AT END OF TIME STEP  487, STRESS PERIOD    1
 
 SOLVING FOR HEAD 
                                                   Max.-Head-Change                         Max.-Flux-Residual
  Residual-Control   Outer-Iter.   Inner-Iter.     Column Row Layer    Maximum-Head-Change  Column Row Layer    Maximum-Flux-Residual          L2-NORM 
          0                 1           1            42    8     1       0.5306514040E-03      54   18    1         0.4570237103E+00      0.2457823498E+01
          0                 2           1            30   50     2      -0.1687904287E-04      40    9    1         0.5479864756E-02      0.4237335907E-01
          0                 3           1            29   26     1       0.1247461783E-04      42   14    2        -0.6920216528E-03      0.1210188424E-01
          0                 4           1            30   31     1       0.9075852481E-05      30   30    2         0.4705659512E-03      0.8098578031E-02

    ------------------------------------------------
       NWT REQUIRED            4 OUTER ITERATIONS 
       AND A TOTAL OF          4 INNER ITERATIONS.
    ------------------------------------------------

 OUTPUT CONTROL FOR STRESS PERIOD    1   TIME STEP  488
    SAVE HEAD FOR ALL LAYERS
 SOLVING FOR ZETA FOR LAYER     1 ZONE     2

     596 UPPER PART EQS.       599 LOWER PART EQS.    BAND WIDTH + 1 =   26
 STRESS PERIOD=  1 TIMESTEP=488 LAYER=  1 ZONE=  2 ACTIVE CELLS= 1195 NUMBER OF EQUATIONS=    1195
 SOLVING FOR ZETA FOR LAYER     2 ZONE     2

     587 UPPER PART EQS.       570 LOWER PART EQS.    BAND WIDTH + 1 =   34
 STRESS PERIOD=  1 TIMESTEP=488 LAYER=  2 ZONE=  2 ACTIVE CELLS= 1157 NUMBER OF EQUATIONS=    1157
 UBUDSV SAVING "      ZETASRF  1" ON UNIT 55 AT TIME STEP488, STRESS PERIOD    1

 HEAD WILL BE SAVED ON UNIT   51 AT END OF TIME STEP  488, STRESS PERIOD    1
 
 SOLVING FOR HEAD 
                                                   Max.-Head-Change                         Max.-Flux-Residual
  Residual-Control   Outer-Iter.   Inner-Iter.     Column Row Layer    Maximum-Head-Change  Column Row Layer    Maximum-Flux-Residual          L2-NORM 
          0                 1           1             8   44     1       0.4543905580E-03       8   44    1         0.4460291099E+00      0.2834738764E+01
          0                 2           1            36   12     2      -0.2250645008E-04      36   15    1        -0.6671717309E-02      0.5094947077E-01
          0                 3           1            39   41     2       0.1749857368E-04      43   42    1         0.9603023849E-03      0.1822449957E-01
          0                 4           1            36   36     2       0.1093412998E-04      36   36    2         0.6159241399E-03      0.1168848244E-01
          0                 5           1            32   32     2       0.1430467543E-04      33   31    2         0.5517054827E-03      0.9567195204E-02
          0                 6           1            32   32     2       0.9514501394E-05      33   31    2         0.4726480306E-03      0.8387608497E-02

    ------------------------------------------------
       NWT REQUIRED            6 OUTER ITERATIONS 
       AND A TOTAL OF          6 INNER ITERATIONS.
    ------------------------------------------------

 OUTPUT CONTROL FOR STRESS PERIOD    1   TIME STEP  489
    SAVE HEAD FOR ALL LAYERS
 SOLVING FOR ZETA FOR LAYER     1 ZONE     2

     603 UPPER PART EQS.       616 LOWER PART EQS.    BAND WIDTH + 1 =   34
 STRESS PERIOD=  1 TIMESTEP=489 LAYER=  1 ZONE=  2 ACTIVE CELLS= 1219 NUMBER OF EQUATIONS=    1219
 SOLVING FOR ZETA FOR LAYER     2 ZONE     2

     585 UPPER PART EQS.       572 LOWER PART EQS.    BAND WIDTH + 1 =   34
 STRESS PERIOD=  1 TIMESTEP=489 LAYER=  2 ZONE=  2 ACTIVE CELLS= 1157 NUMBER OF EQUATIONS=    1157
 UBUDSV SAVING "      ZETASRF  1" ON UNIT 55 AT TIME STEP489, STRESS PERIOD    1

 HEAD WILL BE SAVED ON UNIT   51 AT END OF TIME STEP  489, STRESS PERIOD    1
 
 SOLVING FOR HEAD 
                                                   Max.-Head-Change                         Max.-Flux-Residual
  Residual-Control   Outer-Iter.   Inner-Iter.     Column Row Layer    Maximum-Head-Change  Column Row Layer    Maximum-Flux-Residual          L2-NORM 
          0                 1           1            44   54     1       0.4564230399E-03       8   18    1         0.4513895963E+00      0.2413707391E+01
          0                 2           1            21   20     1       0.2078528864E-04      20   17    1         0.3981403288E-02      0.4398000081E-01
          0                 3           1            24   21     1       0.1864254277E-04      25   20    1         0.1008361489E-02      0.1778426560E-01
          0                 4           1            28   36     2       0.1120420482E-04      27   37    2         0.6393220981E-03      0.1219569209E-01
          0                 5           1            30   31     1       0.1516732835E-04      30   30    2         0.5596182806E-03      0.1039699176E-01
          0                 6           1            30   31     1       0.9751541120E-05      30   30    2         0.4938137671E-03      0.9286897553E-02

    ------------------------------------------------
       NWT REQUIRED            6 OUTER ITERATIONS 
       AND A TOTAL OF          6 INNER ITERATIONS.
    ------------------------------------------------

 OUTPUT CONTROL FOR STRESS PERIOD    1   TIME STEP  490
    SAVE HEAD FOR ALL LAYERS
 SOLVING FOR ZETA FOR LAYER     1 ZONE     2

     620 UPPER PART EQS.       601 LOWER PART EQS.    BAND WIDTH + 1 =   35
 STRESS PERIOD=  1 TIMESTEP=490 LAYER=  1 ZONE=  2 ACTIVE CELLS= 1221 NUMBER OF EQUATIONS=    1221
 SOLVING FOR ZETA FOR LAYER     2 ZONE     2

     585 UPPER PART EQS.       566 LOWER PART EQS.    BAND WIDTH + 1 =   34
 STRESS PERIOD=  1 TIMESTEP=490 LAYER=  2 ZONE=  2 ACTIVE CELLS= 1151 NUMBER OF EQUATIONS=    1151
 UBUDSV SAVING "      ZETASRF  1" ON UNIT 55 AT TIME STEP490, STRESS PERIOD    1

 HEAD WILL BE SAVED ON UNIT   51 AT END OF TIME STEP  490, STRESS PERIOD    1
 
 SOLVING FOR HEAD 
                                                   Max.-Head-Change                         Max.-Flux-Residual
  Residual-Control   Outer-Iter.   Inner-Iter.     Column Row Layer    Maximum-Head-Change  Column Row Layer    Maximum-Flux-Residual          L2-NORM 
          0                 1           1            47   54     1       0.3657290173E-03      47   54    1         0.4072174250E+00      0.2478197178E+01
          0                 2           1            11   29     2      -0.1941881975E-04      11   29    2        -0.5355366836E-02      0.4674770379E-01
          0                 3           1            22   31     1       0.1662776794E-04      30   50    2        -0.7963427959E-03      0.1627218444E-01
          0                 4           1            35   31     2       0.1238689670E-04      36   32    2         0.6102373451E-03      0.1207543844E-01
          0                 5           1            31   31     2       0.1434472406E-04      31   29    2         0.5771223447E-03      0.1058045498E-01
          0                 6           1            30   31     1       0.1064727878E-04      30   30    2         0.4938055397E-03      0.9525580902E-02
          0                 7           1            31   31     2       0.1046645943E-04      33   31    2         0.4396959796E-03      0.8573702877E-02
          0                 8           1            31   31     2       0.8582074391E-05      30   30    2         0.3816928077E-03      0.7762485599E-02

    ------------------------------------------------
       NWT REQUIRED            8 OUTER ITERATIONS 
       AND A TOTAL OF          8 INNER ITERATIONS.
    ------------------------------------------------

 OUTPUT CONTROL FOR STRESS PERIOD    1   TIME STEP  491
    SAVE HEAD FOR ALL LAYERS
 SOLVING FOR ZETA FOR LAYER     1 ZONE     2

     599 UPPER PART EQS.       611 LOWER PART EQS.    BAND WIDTH + 1 =   41
 STRESS PERIOD=  1 TIMESTEP=491 LAYER=  1 ZONE=  2 ACTIVE CELLS= 1210 NUMBER OF EQUATIONS=    1210
 SOLVING FOR ZETA FOR LAYER     2 ZONE     2

     583 UPPER PART EQS.       568 LOWER PART EQS.    BAND WIDTH + 1 =   34
 STRESS PERIOD=  1 TIMESTEP=491 LAYER=  2 ZONE=  2 ACTIVE CELLS= 1151 NUMBER OF EQUATIONS=    1151
 UBUDSV SAVING "      ZETASRF  1" ON UNIT 55 AT TIME STEP491, STRESS PERIOD    1

 HEAD WILL BE SAVED ON UNIT   51 AT END OF TIME STEP  491, STRESS PERIOD    1
 
 SOLVING FOR HEAD 
                                                   Max.-Head-Change                         Max.-Flux-Residual
  Residual-Control   Outer-Iter.   Inner-Iter.     Column Row Layer    Maximum-Head-Change  Column Row Layer    Maximum-Flux-Residual          L2-NORM 
          0                 1           1            44    8     1       0.4483425247E-03      44    8    1         0.4472536807E+00      0.2900074731E+01
          0                 2           1            41   11     2      -0.1590312153E-04      26   47    1         0.5077030750E-02      0.4896865320E-01
          0                 3           1            36   21     1       0.1156653571E-04      45   11    2        -0.6658711496E-03      0.1214575133E-01
          0                 4           1            33   28     1       0.8519842775E-05      32   24    2         0.4295050790E-03      0.8059077647E-02

    ------------------------------------------------
       NWT REQUIRED            4 OUTER ITERATIONS 
       AND A TOTAL OF          4 INNER ITERATIONS.
    ------------------------------------------------

 OUTPUT CONTROL FOR STRESS PERIOD    1   TIME STEP  492
    SAVE HEAD FOR ALL LAYERS
 SOLVING FOR ZETA FOR LAYER     1 ZONE     2

     593 UPPER PART EQS.       597 LOWER PART EQS.    BAND WIDTH + 1 =   24
 STRESS PERIOD=  1 TIMESTEP=492 LAYER=  1 ZONE=  2 ACTIVE CELLS= 1190 NUMBER OF EQUATIONS=    1190
 SOLVING FOR ZETA FOR LAYER     2 ZONE     2

     585 UPPER PART EQS.       570 LOWER PART EQS.    BAND WIDTH + 1 =   34
 STRESS PERIOD=  1 TIMESTEP=492 LAYER=  2 ZONE=  2 ACTIVE CELLS= 1155 NUMBER OF EQUATIONS=    1155
 UBUDSV SAVING "      ZETASRF  1" ON UNIT 55 AT TIME STEP492, STRESS PERIOD    1

 HEAD WILL BE SAVED ON UNIT   51 AT END OF TIME STEP  492, STRESS PERIOD    1
 
 SOLVING FOR HEAD 
                                                   Max.-Head-Change                         Max.-Flux-Residual
  Residual-Control   Outer-Iter.   Inner-Iter.     Column Row Layer    Maximum-Head-Change  Column Row Layer    Maximum-Flux-Residual          L2-NORM 
          0                 1           1            18    8     1       0.4555101341E-03      18    8    1         0.4424913229E+00      0.3129537931E+01
          0                 2           1            19   22     1       0.2569398814E-04      32   12    2        -0.4971152724E-02      0.5925649598E-01
          0                 3           1            23   22     1       0.2039179341E-04      48   53    1        -0.1224519520E-02      0.2390224710E-01
          0                 4           1            28   36     2       0.1275188418E-04      44   25    1         0.8681642866E-03      0.1536038991E-01
          0                 5           1            32   32     2       0.1755922013E-04      31   33    2         0.6596688258E-03      0.1261732321E-01
          0                 6           1            30   31     1       0.1170007033E-04      30   30    2         0.5942395225E-03      0.1109767489E-01
          0                 7           1            31   31     2       0.1419255275E-04      33   31    2         0.5303260983E-03      0.9892124079E-02
          0                 8           1            30   31     1       0.9058040099E-05      44   25    1         0.4571739466E-03      0.8956562232E-02

    ------------------------------------------------
       NWT REQUIRED            8 OUTER ITERATIONS 
       AND A TOTAL OF          8 INNER ITERATIONS.
    ------------------------------------------------

 OUTPUT CONTROL FOR STRESS PERIOD    1   TIME STEP  493
    SAVE HEAD FOR ALL LAYERS
 SOLVING FOR ZETA FOR LAYER     1 ZONE     2

     616 UPPER PART EQS.       623 LOWER PART EQS.    BAND WIDTH + 1 =   34
 STRESS PERIOD=  1 TIMESTEP=493 LAYER=  1 ZONE=  2 ACTIVE CELLS= 1239 NUMBER OF EQUATIONS=    1239
 SOLVING FOR ZETA FOR LAYER     2 ZONE     2

     587 UPPER PART EQS.       568 LOWER PART EQS.    BAND WIDTH + 1 =   34
 STRESS PERIOD=  1 TIMESTEP=493 LAYER=  2 ZONE=  2 ACTIVE CELLS= 1155 NUMBER OF EQUATIONS=    1155
 UBUDSV SAVING "      ZETASRF  1" ON UNIT 55 AT TIME STEP493, STRESS PERIOD    1

 HEAD WILL BE SAVED ON UNIT   51 AT END OF TIME STEP  493, STRESS PERIOD    1
 
 SOLVING FOR HEAD 
                                                   Max.-Head-Change                         Max.-Flux-Residual
  Residual-Control   Outer-Iter.   Inner-Iter.     Column Row Layer    Maximum-Head-Change  Column Row Layer    Maximum-Flux-Residual          L2-NORM 
          0                 1           1            45    8     1       0.4324457312E-03      48    8    1         0.3750875706E+00      0.1983072784E+01
          0                 2           1            30   50     2      -0.1513659742E-04      42   47    1         0.4342554930E-02      0.3824066890E-01
          0                 3           1            23   30     1       0.1185881488E-04      22   31    1         0.5573174310E-03      0.1121935365E-01
          0                 4           1            30   31     1       0.9222561075E-05      30   30    2         0.4596073899E-03      0.8065994047E-02

    ------------------------------------------------
       NWT REQUIRED            4 OUTER ITERATIONS 
       AND A TOTAL OF          4 INNER ITERATIONS.
    ------------------------------------------------

 OUTPUT CONTROL FOR STRESS PERIOD    1   TIME STEP  494
    SAVE HEAD FOR ALL LAYERS
 SOLVING FOR ZETA FOR LAYER     1 ZONE     2

     607 UPPER PART EQS.       592 LOWER PART EQS.    BAND WIDTH + 1 =   29
 STRESS PERIOD=  1 TIMESTEP=494 LAYER=  1 ZONE=  2 ACTIVE CELLS= 1199 NUMBER OF EQUATIONS=    1199
 SOLVING FOR ZETA FOR LAYER     2 ZONE     2

     585 UPPER PART EQS.       572 LOWER PART EQS.    BAND WIDTH + 1 =   34
 STRESS PERIOD=  1 TIMESTEP=494 LAYER=  2 ZONE=  2 ACTIVE CELLS= 1157 NUMBER OF EQUATIONS=    1157
 UBUDSV SAVING "      ZETASRF  1" ON UNIT 55 AT TIME STEP494, STRESS PERIOD    1

 HEAD WILL BE SAVED ON UNIT   51 AT END OF TIME STEP  494, STRESS PERIOD    1
 
 SOLVING FOR HEAD 
                                                   Max.-Head-Change                         Max.-Flux-Residual
  Residual-Control   Outer-Iter.   Inner-Iter.     Column Row Layer    Maximum-Head-Change  Column Row Layer    Maximum-Flux-Residual          L2-NORM 
          0                 1           1            54   44     1       0.4520543039E-03       8   43    1         0.4527468266E+00      0.2876581685E+01
          0                 2           1            37   18     1       0.2077085699E-04      36   15    1        -0.5017776639E-02      0.5055362603E-01
          0                 3           1            36   21     1       0.1668485705E-04      37   20    1         0.9045210657E-03      0.1766555309E-01
          0                 4           1            36   36     2       0.1097054706E-04      38   38    2         0.6017558654E-03      0.1149660574E-01
          0                 5           1            33   31     2       0.1368103212E-04      33   31    2         0.5419584735E-03      0.9516708812E-02
          0                 6           1            32   32     2       0.9680757978E-05      33   31    2         0.4699838098E-03      0.8360431046E-02

    ------------------------------------------------
       NWT REQUIRED            6 OUTER ITERATIONS 
       AND A TOTAL OF          6 INNER ITERATIONS.
    ------------------------------------------------

 OUTPUT CONTROL FOR STRESS PERIOD    1   TIME STEP  495
    SAVE HEAD FOR ALL LAYERS
 SOLVING FOR ZETA FOR LAYER     1 ZONE     2

     605 UPPER PART EQS.       615 LOWER PART EQS.    BAND WIDTH + 1 =   33
 STRESS PERIOD=  1 TIMESTEP=495 LAYER=  1 ZONE=  2 ACTIVE CELLS= 1220 NUMBER OF EQUATIONS=    1220
 SOLVING FOR ZETA FOR LAYER     2 ZONE     2

     589 UPPER PART EQS.       566 LOWER PART EQS.    BAND WIDTH + 1 =   34
 STRESS PERIOD=  1 TIMESTEP=495 LAYER=  2 ZONE=  2 ACTIVE CELLS= 1155 NUMBER OF EQUATIONS=    1155
 UBUDSV SAVING "      ZETASRF  1" ON UNIT 55 AT TIME STEP495, STRESS PERIOD    1

 HEAD WILL BE SAVED ON UNIT   51 AT END OF TIME STEP  495, STRESS PERIOD    1
 
 SOLVING FOR HEAD 
                                                   Max.-Head-Change                         Max.-Flux-Residual
  Residual-Control   Outer-Iter.   Inner-Iter.     Column Row Layer    Maximum-Head-Change  Column Row Layer    Maximum-Flux-Residual          L2-NORM 
          0                 1           1             8   44     1       0.4516387507E-03       8   44    1         0.4502793994E+00      0.2034574509E+01
          0                 2           1            21   20     1       0.2064980252E-04      31   13    2        -0.4691523327E-02      0.4414164297E-01
          0                 3           1            23   22     1       0.1919367608E-04      24   21    1         0.1001582923E-02      0.1730179877E-01
          0                 4           1            27   26     1       0.1161894132E-04      27   37    2         0.6326465711E-03      0.1238860211E-01
          0                 5           1            30   30     2       0.1508699597E-04      31   29    2         0.5653518774E-03      0.1079639058E-01
          0                 6           1            30   31     1       0.1044101600E-04      30   30    2         0.4948761949E-03      0.9723747837E-02
          0                 7           1            31   31     2       0.1077494993E-04      45   35    2         0.4433112825E-03      0.8721046551E-02
          0                 8           1            30   31     1       0.8615229247E-05      30   30    2         0.3860727949E-03      0.7906245913E-02

    ------------------------------------------------
       NWT REQUIRED            8 OUTER ITERATIONS 
       AND A TOTAL OF          8 INNER ITERATIONS.
    ------------------------------------------------

 OUTPUT CONTROL FOR STRESS PERIOD    1   TIME STEP  496
    SAVE HEAD FOR ALL LAYERS
 SOLVING FOR ZETA FOR LAYER     1 ZONE     2

     598 UPPER PART EQS.       604 LOWER PART EQS.    BAND WIDTH + 1 =   26
 STRESS PERIOD=  1 TIMESTEP=496 LAYER=  1 ZONE=  2 ACTIVE CELLS= 1202 NUMBER OF EQUATIONS=    1202
 SOLVING FOR ZETA FOR LAYER     2 ZONE     2

     583 UPPER PART EQS.       572 LOWER PART EQS.    BAND WIDTH + 1 =   34
 STRESS PERIOD=  1 TIMESTEP=496 LAYER=  2 ZONE=  2 ACTIVE CELLS= 1155 NUMBER OF EQUATIONS=    1155
 UBUDSV SAVING "      ZETASRF  1" ON UNIT 55 AT TIME STEP496, STRESS PERIOD    1

 HEAD WILL BE SAVED ON UNIT   51 AT END OF TIME STEP  496, STRESS PERIOD    1
 
 SOLVING FOR HEAD 
                                                   Max.-Head-Change                         Max.-Flux-Residual
  Residual-Control   Outer-Iter.   Inner-Iter.     Column Row Layer    Maximum-Head-Change  Column Row Layer    Maximum-Flux-Residual          L2-NORM 
          0                 1           1            44   54     1       0.4573403282E-03      44   54    1         0.4306136406E+00      0.3141344250E+01
          0                 2           1            45   51     2      -0.1936814516E-04      34   50    2        -0.4850109830E-02      0.4775982713E-01
          0                 3           1            48   48     2      -0.1696842082E-04      48   48    2        -0.9901558077E-03      0.1722042422E-01
          0                 4           1            35   31     2       0.9204334246E-05      34   50    2        -0.6005325207E-03      0.1057909877E-01

    ------------------------------------------------
       NWT REQUIRED            4 OUTER ITERATIONS 
       AND A TOTAL OF          4 INNER ITERATIONS.
    ------------------------------------------------

 OUTPUT CONTROL FOR STRESS PERIOD    1   TIME STEP  497
    SAVE HEAD FOR ALL LAYERS
 SOLVING FOR ZETA FOR LAYER     1 ZONE     2

     604 UPPER PART EQS.       616 LOWER PART EQS.    BAND WIDTH + 1 =   43
 STRESS PERIOD=  1 TIMESTEP=497 LAYER=  1 ZONE=  2 ACTIVE CELLS= 1220 NUMBER OF EQUATIONS=    1220
 SOLVING FOR ZETA FOR LAYER     2 ZONE     2

     585 UPPER PART EQS.       570 LOWER PART EQS.    BAND WIDTH + 1 =   34
 STRESS PERIOD=  1 TIMESTEP=497 LAYER=  2 ZONE=  2 ACTIVE CELLS= 1155 NUMBER OF EQUATIONS=    1155
 UBUDSV SAVING "      ZETASRF  1" ON UNIT 55 AT TIME STEP497, STRESS PERIOD    1

 HEAD WILL BE SAVED ON UNIT   51 AT END OF TIME STEP  497, STRESS PERIOD    1
 
 SOLVING FOR HEAD 
                                                   Max.-Head-Change                         Max.-Flux-Residual
  Residual-Control   Outer-Iter.   Inner-Iter.     Column Row Layer    Maximum-Head-Change  Column Row Layer    Maximum-Flux-Residual          L2-NORM 
          0                 1           1            46    8     1       0.3884338578E-03      46    8    1         0.4082289270E+00      0.2520164824E+01
          0                 2           1            40   12     2      -0.1445163836E-04      26   47    1         0.5134976443E-02      0.4510751356E-01
          0                 3           1            35   22     1       0.1363785265E-04      37   20    1         0.6783090008E-03      0.1326674504E-01
          0                 4           1            32   29     1       0.1003694331E-04      32   28    2         0.5128947500E-03      0.9076572944E-02
          0                 5           1            32   31     1       0.1118076530E-04      31   29    2         0.4591129350E-03      0.7563388278E-02
          0                 6           1            32   32     2       0.8010971905E-05      33   31    2         0.3862308970E-03      0.6686281937E-02

    ------------------------------------------------
       NWT REQUIRED            6 OUTER ITERATIONS 
       AND A TOTAL OF          6 INNER ITERATIONS.
    ------------------------------------------------

 OUTPUT CONTROL FOR STRESS PERIOD    1   TIME STEP  498
    SAVE HEAD FOR ALL LAYERS
 SOLVING FOR ZETA FOR LAYER     1 ZONE     2

     618 UPPER PART EQS.       590 LOWER PART EQS.    BAND WIDTH + 1 =   39
 STRESS PERIOD=  1 TIMESTEP=498 LAYER=  1 ZONE=  2 ACTIVE CELLS= 1208 NUMBER OF EQUATIONS=    1208
 SOLVING FOR ZETA FOR LAYER     2 ZONE     2

     583 UPPER PART EQS.       572 LOWER PART EQS.    BAND WIDTH + 1 =   34
 STRESS PERIOD=  1 TIMESTEP=498 LAYER=  2 ZONE=  2 ACTIVE CELLS= 1155 NUMBER OF EQUATIONS=    1155
 UBUDSV SAVING "      ZETASRF  1" ON UNIT 55 AT TIME STEP498, STRESS PERIOD    1

 HEAD WILL BE SAVED ON UNIT   51 AT END OF TIME STEP  498, STRESS PERIOD    1
 
 SOLVING FOR HEAD 
                                                   Max.-Head-Change                         Max.-Flux-Residual
  Residual-Control   Outer-Iter.   Inner-Iter.     Column Row Layer    Maximum-Head-Change  Column Row Layer    Maximum-Flux-Residual          L2-NORM 
          0                 1           1             8   45     1       0.4219770006E-03       8   17    1         0.4275870545E+00      0.2935951620E+01
          0                 2           1            12   22     2      -0.2703525908E-04      12   22    2        -0.7260668532E-02      0.5892723838E-01
          0                 3           1            23   22     1       0.2013307936E-04      24   21    1         0.1108000883E-02      0.2095885771E-01
          0                 4           1            35   26     1       0.1244403150E-04      44   25    1         0.7637473638E-03      0.1428647565E-01
          0                 5           1            32   32     2       0.1635348459E-04      45   27    2         0.6275944892E-03      0.1229956695E-01
          0                 6           1            30   31     1       0.1185423405E-04      30   30    2         0.5592669531E-03      0.1104591925E-01
          0                 7           1            31   31     2       0.1220996671E-04      45   27    2         0.5365427271E-03      0.9921763151E-02
          0                 8           1            31   31     2       0.9893762737E-05      44   25    1         0.4400905510E-03      0.8982721629E-02

    ------------------------------------------------
       NWT REQUIRED            8 OUTER ITERATIONS 
       AND A TOTAL OF          8 INNER ITERATIONS.
    ------------------------------------------------

 OUTPUT CONTROL FOR STRESS PERIOD    1   TIME STEP  499
    SAVE HEAD FOR ALL LAYERS
 SOLVING FOR ZETA FOR LAYER     1 ZONE     2

     609 UPPER PART EQS.       619 LOWER PART EQS.    BAND WIDTH + 1 =   34
 STRESS PERIOD=  1 TIMESTEP=499 LAYER=  1 ZONE=  2 ACTIVE CELLS= 1228 NUMBER OF EQUATIONS=    1228
 SOLVING FOR ZETA FOR LAYER     2 ZONE     2

     585 UPPER PART EQS.       580 LOWER PART EQS.    BAND WIDTH + 1 =   34
 STRESS PERIOD=  1 TIMESTEP=499 LAYER=  2 ZONE=  2 ACTIVE CELLS= 1165 NUMBER OF EQUATIONS=    1165
 UBUDSV SAVING "      ZETASRF  1" ON UNIT 55 AT TIME STEP499, STRESS PERIOD    1

 HEAD WILL BE SAVED ON UNIT   51 AT END OF TIME STEP  499, STRESS PERIOD    1
 
 SOLVING FOR HEAD 
                                                   Max.-Head-Change                         Max.-Flux-Residual
  Residual-Control   Outer-Iter.   Inner-Iter.     Column Row Layer    Maximum-Head-Change  Column Row Layer    Maximum-Flux-Residual          L2-NORM 
          0                 1           1            19   54     1       0.4829123996E-03      54   19    1         0.4562371537E+00      0.2395893476E+01
          0                 2           1            30   50     2      -0.1660435027E-04      38   16    2        -0.5659339130E-02      0.4190337597E-01
          0                 3           1            26   30     2       0.1142894570E-04      42   14    2        -0.7288839118E-03      0.1143936321E-01
          0                 4           1            29   30     1       0.8693370003E-05      30   30    2         0.4451868239E-03      0.7755500814E-02

    ------------------------------------------------
       NWT REQUIRED            4 OUTER ITERATIONS 
       AND A TOTAL OF          4 INNER ITERATIONS.
    ------------------------------------------------

 OUTPUT CONTROL FOR STRESS PERIOD    1   TIME STEP  500
    SAVE HEAD FOR ALL LAYERS
 SOLVING FOR ZETA FOR LAYER     1 ZONE     2

     590 UPPER PART EQS.       598 LOWER PART EQS.    BAND WIDTH + 1 =   30
 STRESS PERIOD=  1 TIMESTEP=500 LAYER=  1 ZONE=  2 ACTIVE CELLS= 1188 NUMBER OF EQUATIONS=    1188
 SOLVING FOR ZETA FOR LAYER     2 ZONE     2

     589 UPPER PART EQS.       586 LOWER PART EQS.    BAND WIDTH + 1 =   34
 STRESS PERIOD=  1 TIMESTEP=500 LAYER=  2 ZONE=  2 ACTIVE CELLS= 1175 NUMBER OF EQUATIONS=    1175
 UBUDSV SAVING "      ZETASRF  1" ON UNIT 55 AT TIME STEP500, STRESS PERIOD    1

 HEAD WILL BE SAVED ON UNIT   51 AT END OF TIME STEP  500, STRESS PERIOD    1
 
 SOLVING FOR HEAD 
                                                   Max.-Head-Change                         Max.-Flux-Residual
  Residual-Control   Outer-Iter.   Inner-Iter.     Column Row Layer    Maximum-Head-Change  Column Row Layer    Maximum-Flux-Residual          L2-NORM 
          0                 1           1            19    8     1       0.5053335563E-03      43   54    1         0.4574250309E+00      0.2548334370E+01
          0                 2           1            18   16     2      -0.2292596611E-04      18   16    2        -0.5938212104E-02      0.4990983404E-01
          0                 3           1            37   22     1       0.1579444590E-04      20   15    1        -0.9638216431E-03      0.1843613015E-01
          0                 4           1            35   35     2       0.9830003472E-05      18   16    2        -0.6630105673E-03      0.1116507519E-01

    ------------------------------------------------
       NWT REQUIRED            4 OUTER ITERATIONS 
       AND A TOTAL OF          4 INNER ITERATIONS.
    ------------------------------------------------

 OUTPUT CONTROL FOR STRESS PERIOD    1   TIME STEP  501
    SAVE HEAD FOR ALL LAYERS
 SOLVING FOR ZETA FOR LAYER     1 ZONE     2

     610 UPPER PART EQS.       615 LOWER PART EQS.    BAND WIDTH + 1 =   31
 STRESS PERIOD=  1 TIMESTEP=501 LAYER=  1 ZONE=  2 ACTIVE CELLS= 1225 NUMBER OF EQUATIONS=    1225
 SOLVING FOR ZETA FOR LAYER     2 ZONE     2

     589 UPPER PART EQS.       582 LOWER PART EQS.    BAND WIDTH + 1 =   34
 STRESS PERIOD=  1 TIMESTEP=501 LAYER=  2 ZONE=  2 ACTIVE CELLS= 1171 NUMBER OF EQUATIONS=    1171
 UBUDSV SAVING "      ZETASRF  1" ON UNIT 55 AT TIME STEP501, STRESS PERIOD    1

 HEAD WILL BE SAVED ON UNIT   51 AT END OF TIME STEP  501, STRESS PERIOD    1
 
 SOLVING FOR HEAD 
                                                   Max.-Head-Change                         Max.-Flux-Residual
  Residual-Control   Outer-Iter.   Inner-Iter.     Column Row Layer    Maximum-Head-Change  Column Row Layer    Maximum-Flux-Residual          L2-NORM 
          0                 1           1             8   19     1       0.4798887690E-03       8   19    1         0.4526660768E+00      0.2149588587E+01
          0                 2           1            26   50     2      -0.1947637882E-04      31   13    2        -0.4769948405E-02      0.4328401288E-01
          0                 3           1            24   40     2       0.1819478879E-04      24   21    1         0.9302561796E-03      0.1781889327E-01
          0                 4           1            29   35     2       0.1224929307E-04      28   36    2         0.6688777704E-03      0.1255353818E-01
          0                 5           1            31   31     2       0.1593372174E-04      31   33    2         0.6084491934E-03      0.1075398451E-01
          0                 6           1            30   31     1       0.1070813234E-04      30   30    2         0.5171672632E-03      0.9586499922E-02
          0                 7           1            31   31     2       0.1115314146E-04      32   32    2         0.4547692758E-03      0.8586881848E-02
          0                 8           1            30   31     1       0.8674939980E-05      30   30    2         0.3905797444E-03      0.7773431900E-02

    ------------------------------------------------
       NWT REQUIRED            8 OUTER ITERATIONS 
       AND A TOTAL OF          8 INNER ITERATIONS.
    ------------------------------------------------

 OUTPUT CONTROL FOR STRESS PERIOD    1   TIME STEP  502
    SAVE HEAD FOR ALL LAYERS
 SOLVING FOR ZETA FOR LAYER     1 ZONE     2

     623 UPPER PART EQS.       597 LOWER PART EQS.    BAND WIDTH + 1 =   40
 STRESS PERIOD=  1 TIMESTEP=502 LAYER=  1 ZONE=  2 ACTIVE CELLS= 1220 NUMBER OF EQUATIONS=    1220
 SOLVING FOR ZETA FOR LAYER     2 ZONE     2

     583 UPPER PART EQS.       586 LOWER PART EQS.    BAND WIDTH + 1 =   34
 STRESS PERIOD=  1 TIMESTEP=502 LAYER=  2 ZONE=  2 ACTIVE CELLS= 1169 NUMBER OF EQUATIONS=    1169
 UBUDSV SAVING "      ZETASRF  1" ON UNIT 55 AT TIME STEP502, STRESS PERIOD    1

 HEAD WILL BE SAVED ON UNIT   51 AT END OF TIME STEP  502, STRESS PERIOD    1
 
 SOLVING FOR HEAD 
                                                   Max.-Head-Change                         Max.-Flux-Residual
  Residual-Control   Outer-Iter.   Inner-Iter.     Column Row Layer    Maximum-Head-Change  Column Row Layer    Maximum-Flux-Residual          L2-NORM 
          0                 1           1            17   54     1       0.4226327390E-03      17    8    1         0.4273689111E+00      0.2512400657E+01
          0                 2           1            10   36     2      -0.1568211137E-04      51   18    1         0.4777950429E-02      0.4406591149E-01
          0                 3           1            41   30     1       0.1486374918E-04      43   33    2         0.7051777078E-03      0.1403108132E-01
          0                 4           1            36   31     1       0.9576623607E-05      37   31    2         0.5111353969E-03      0.9507432738E-02

    ------------------------------------------------
       NWT REQUIRED            4 OUTER ITERATIONS 
       AND A TOTAL OF          4 INNER ITERATIONS.
    ------------------------------------------------

 OUTPUT CONTROL FOR STRESS PERIOD    1   TIME STEP  503
    SAVE HEAD FOR ALL LAYERS
 SOLVING FOR ZETA FOR LAYER     1 ZONE     2

     596 UPPER PART EQS.       613 LOWER PART EQS.    BAND WIDTH + 1 =   44
 STRESS PERIOD=  1 TIMESTEP=503 LAYER=  1 ZONE=  2 ACTIVE CELLS= 1209 NUMBER OF EQUATIONS=    1209
 SOLVING FOR ZETA FOR LAYER     2 ZONE     2

     587 UPPER PART EQS.       584 LOWER PART EQS.    BAND WIDTH + 1 =   34
 STRESS PERIOD=  1 TIMESTEP=503 LAYER=  2 ZONE=  2 ACTIVE CELLS= 1171 NUMBER OF EQUATIONS=    1171
 UBUDSV SAVING "      ZETASRF  1" ON UNIT 55 AT TIME STEP503, STRESS PERIOD    1

 HEAD WILL BE SAVED ON UNIT   51 AT END OF TIME STEP  503, STRESS PERIOD    1
 
 SOLVING FOR HEAD 
                                                   Max.-Head-Change                         Max.-Flux-Residual
  Residual-Control   Outer-Iter.   Inner-Iter.     Column Row Layer    Maximum-Head-Change  Column Row Layer    Maximum-Flux-Residual          L2-NORM 
          0                 1           1            47    8     1       0.3573009848E-03      47    8    1         0.3980283124E+00      0.2263427157E+01
          0                 2           1            36   12     2      -0.1560727976E-04      26   47    1         0.5028493169E-02      0.4524387785E-01
          0                 3           1            36   21     1       0.1475833305E-04      37   20    1         0.7516568509E-03      0.1396916038E-01
          0                 4           1            32   29     1       0.1036990931E-04      32   24    2         0.5265787220E-03      0.9711139185E-02
          0                 5           1            32   32     2       0.1182071720E-04      33   31    2         0.4756936999E-03      0.8239417079E-02
          0                 6           1            32   32     2       0.8658074989E-05      33   31    2         0.4073206137E-03      0.7354621413E-02

    ------------------------------------------------
       NWT REQUIRED            6 OUTER ITERATIONS 
       AND A TOTAL OF          6 INNER ITERATIONS.
    ------------------------------------------------

 OUTPUT CONTROL FOR STRESS PERIOD    1   TIME STEP  504
    SAVE HEAD FOR ALL LAYERS
 SOLVING FOR ZETA FOR LAYER     1 ZONE     2

     601 UPPER PART EQS.       599 LOWER PART EQS.    BAND WIDTH + 1 =   26
 STRESS PERIOD=  1 TIMESTEP=504 LAYER=  1 ZONE=  2 ACTIVE CELLS= 1200 NUMBER OF EQUATIONS=    1200
 SOLVING FOR ZETA FOR LAYER     2 ZONE     2

     577 UPPER PART EQS.       582 LOWER PART EQS.    BAND WIDTH + 1 =   34
 STRESS PERIOD=  1 TIMESTEP=504 LAYER=  2 ZONE=  2 ACTIVE CELLS= 1159 NUMBER OF EQUATIONS=    1159
 UBUDSV SAVING "      ZETASRF  1" ON UNIT 55 AT TIME STEP504, STRESS PERIOD    1

 HEAD WILL BE SAVED ON UNIT   51 AT END OF TIME STEP  504, STRESS PERIOD    1
 
 SOLVING FOR HEAD 
                                                   Max.-Head-Change                         Max.-Flux-Residual
  Residual-Control   Outer-Iter.   Inner-Iter.     Column Row Layer    Maximum-Head-Change  Column Row Layer    Maximum-Flux-Residual          L2-NORM 
          0                 1           1             8   44     1       0.4733320476E-03      54   44    1         0.4461977502E+00      0.3220383977E+01
          0                 2           1            21   18     1       0.2271863772E-04      23   49    2        -0.5450254187E-02      0.5562903174E-01
          0                 3           1            23   22     1       0.1926233033E-04      23   22    1         0.1026204185E-02      0.2057724306E-01
          0                 4           1            28   36     2       0.1127701572E-04      46   34    2         0.6872952658E-03      0.1345470047E-01
          0                 5           1            31   30     1       0.1575515731E-04      31   29    2         0.5807073908E-03      0.1130954868E-01
          0                 6           1            30   31     1       0.1052219107E-04      30   30    2         0.5265019455E-03      0.1002977989E-01
          0                 7           1            31   31     2       0.1231847826E-04      30   30    2         0.4694850201E-03      0.8975984075E-02
          0                 8           1            30   31     1       0.8362405107E-05      30   30    2         0.4046648494E-03      0.8116727350E-02

    ------------------------------------------------
       NWT REQUIRED            8 OUTER ITERATIONS 
       AND A TOTAL OF          8 INNER ITERATIONS.
    ------------------------------------------------

 OUTPUT CONTROL FOR STRESS PERIOD    1   TIME STEP  505
    SAVE HEAD FOR ALL LAYERS
 SOLVING FOR ZETA FOR LAYER     1 ZONE     2

     611 UPPER PART EQS.       623 LOWER PART EQS.    BAND WIDTH + 1 =   37
 STRESS PERIOD=  1 TIMESTEP=505 LAYER=  1 ZONE=  2 ACTIVE CELLS= 1234 NUMBER OF EQUATIONS=    1234
 SOLVING FOR ZETA FOR LAYER     2 ZONE     2

     589 UPPER PART EQS.       584 LOWER PART EQS.    BAND WIDTH + 1 =   34
 STRESS PERIOD=  1 TIMESTEP=505 LAYER=  2 ZONE=  2 ACTIVE CELLS= 1173 NUMBER OF EQUATIONS=    1173
 UBUDSV SAVING "      ZETASRF  1" ON UNIT 55 AT TIME STEP505, STRESS PERIOD    1

 HEAD WILL BE SAVED ON UNIT   51 AT END OF TIME STEP  505, STRESS PERIOD    1
 
 SOLVING FOR HEAD 
                                                   Max.-Head-Change                         Max.-Flux-Residual
  Residual-Control   Outer-Iter.   Inner-Iter.     Column Row Layer    Maximum-Head-Change  Column Row Layer    Maximum-Flux-Residual          L2-NORM 
          0                 1           1            45    8     1       0.4246353045E-03      45    8    1         0.4255442894E+00      0.2051123746E+01
          0                 2           1            32   50     2      -0.1464857128E-04      42   47    1         0.4087165316E-02      0.3560449812E-01
          0                 3           1            23   30     1       0.1144965911E-04      29   51    2        -0.5256107761E-03      0.1072592094E-01
          0                 4           1            31   30     1       0.8218080407E-05      28   28    2         0.4290777872E-03      0.7274210427E-02

    ------------------------------------------------
       NWT REQUIRED            4 OUTER ITERATIONS 
       AND A TOTAL OF          4 INNER ITERATIONS.
    ------------------------------------------------

 OUTPUT CONTROL FOR STRESS PERIOD    1   TIME STEP  506
    SAVE HEAD FOR ALL LAYERS
 SOLVING FOR ZETA FOR LAYER     1 ZONE     2

     607 UPPER PART EQS.       592 LOWER PART EQS.    BAND WIDTH + 1 =   29
 STRESS PERIOD=  1 TIMESTEP=506 LAYER=  1 ZONE=  2 ACTIVE CELLS= 1199 NUMBER OF EQUATIONS=    1199
 SOLVING FOR ZETA FOR LAYER     2 ZONE     2

     589 UPPER PART EQS.       586 LOWER PART EQS.    BAND WIDTH + 1 =   34
 STRESS PERIOD=  1 TIMESTEP=506 LAYER=  2 ZONE=  2 ACTIVE CELLS= 1175 NUMBER OF EQUATIONS=    1175
 UBUDSV SAVING "      ZETASRF  1" ON UNIT 55 AT TIME STEP506, STRESS PERIOD    1

 HEAD WILL BE SAVED ON UNIT   51 AT END OF TIME STEP  506, STRESS PERIOD    1
 
 SOLVING FOR HEAD 
                                                   Max.-Head-Change                         Max.-Flux-Residual
  Residual-Control   Outer-Iter.   Inner-Iter.     Column Row Layer    Maximum-Head-Change  Column Row Layer    Maximum-Flux-Residual          L2-NORM 
          0                 1           1            22   14     1       0.4152619274E-03      15   54    1         0.3975586923E+00      0.2579215624E+01
          0                 2           1            37   18     1       0.1853895896E-04      19   16    1        -0.7206238390E-02      0.4888401779E-01
          0                 3           1            37   22     1       0.1539516078E-04      17   47    2        -0.8385144708E-03      0.1568777365E-01
          0                 4           1            36   34     2       0.9763497819E-05      36   36    2         0.5414930439E-03      0.9857715405E-02

    ------------------------------------------------
       NWT REQUIRED            4 OUTER ITERATIONS 
       AND A TOTAL OF          4 INNER ITERATIONS.
    ------------------------------------------------

 OUTPUT CONTROL FOR STRESS PERIOD    1   TIME STEP  507
    SAVE HEAD FOR ALL LAYERS
 SOLVING FOR ZETA FOR LAYER     1 ZONE     2

     603 UPPER PART EQS.       614 LOWER PART EQS.    BAND WIDTH + 1 =   32
 STRESS PERIOD=  1 TIMESTEP=507 LAYER=  1 ZONE=  2 ACTIVE CELLS= 1217 NUMBER OF EQUATIONS=    1217
 SOLVING FOR ZETA FOR LAYER     2 ZONE     2

     589 UPPER PART EQS.       580 LOWER PART EQS.    BAND WIDTH + 1 =   34
 STRESS PERIOD=  1 TIMESTEP=507 LAYER=  2 ZONE=  2 ACTIVE CELLS= 1169 NUMBER OF EQUATIONS=    1169
 UBUDSV SAVING "      ZETASRF  1" ON UNIT 55 AT TIME STEP507, STRESS PERIOD    1

 HEAD WILL BE SAVED ON UNIT   51 AT END OF TIME STEP  507, STRESS PERIOD    1
 
 SOLVING FOR HEAD 
                                                   Max.-Head-Change                         Max.-Flux-Residual
  Residual-Control   Outer-Iter.   Inner-Iter.     Column Row Layer    Maximum-Head-Change  Column Row Layer    Maximum-Flux-Residual          L2-NORM 
          0                 1           1            44   54     1       0.4613337960E-03       8   18    1         0.4457867959E+00      0.2146972975E+01
          0                 2           1            20   17     1       0.2653976523E-04      19   48    1         0.6502958164E-02      0.4746622811E-01
          0                 3           1            24   21     1       0.1955979997E-04      26   42    2         0.1118013480E-02      0.1886123405E-01
          0                 4           1            28   36     2       0.1184294256E-04      27   37    2         0.6841512749E-03      0.1256207643E-01
          0                 5           1            30   32     2       0.1529494113E-04      31   33    2         0.5925921599E-03      0.1051072104E-01
          0                 6           1            30   31     1       0.1060265991E-04      30   30    2         0.5132592891E-03      0.9274616874E-02
          0                 7           1            30   32     2       0.1082026398E-04      30   30    2         0.4482075608E-03      0.8297480428E-02
          0                 8           1            30   31     1       0.8593041306E-05      30   30    2         0.3851284554E-03      0.7501324597E-02

    ------------------------------------------------
       NWT REQUIRED            8 OUTER ITERATIONS 
       AND A TOTAL OF          8 INNER ITERATIONS.
    ------------------------------------------------

 OUTPUT CONTROL FOR STRESS PERIOD    1   TIME STEP  508
    SAVE HEAD FOR ALL LAYERS
 SOLVING FOR ZETA FOR LAYER     1 ZONE     2

     609 UPPER PART EQS.       608 LOWER PART EQS.    BAND WIDTH + 1 =   29
 STRESS PERIOD=  1 TIMESTEP=508 LAYER=  1 ZONE=  2 ACTIVE CELLS= 1217 NUMBER OF EQUATIONS=    1217
 SOLVING FOR ZETA FOR LAYER     2 ZONE     2

     585 UPPER PART EQS.       588 LOWER PART EQS.    BAND WIDTH + 1 =   34
 STRESS PERIOD=  1 TIMESTEP=508 LAYER=  2 ZONE=  2 ACTIVE CELLS= 1173 NUMBER OF EQUATIONS=    1173
 UBUDSV SAVING "      ZETASRF  1" ON UNIT 55 AT TIME STEP508, STRESS PERIOD    1

 HEAD WILL BE SAVED ON UNIT   51 AT END OF TIME STEP  508, STRESS PERIOD    1
 
 SOLVING FOR HEAD 
                                                   Max.-Head-Change                         Max.-Flux-Residual
  Residual-Control   Outer-Iter.   Inner-Iter.     Column Row Layer    Maximum-Head-Change  Column Row Layer    Maximum-Flux-Residual          L2-NORM 
          0                 1           1            40   14     1       0.4256515635E-03      48   54    1         0.3797971726E+00      0.2532216139E+01
          0                 2           1            37   50     1       0.1566639845E-04      37   48    1        -0.5865571646E-02      0.4321588109E-01
          0                 3           1            22   31     1       0.1397212981E-04      21   32    1         0.7001590442E-03      0.1362747978E-01
          0                 4           1            26   31     1       0.9720929922E-05      26   30    2         0.5010497429E-03      0.9227436052E-02

    ------------------------------------------------
       NWT REQUIRED            4 OUTER ITERATIONS 
       AND A TOTAL OF          4 INNER ITERATIONS.
    ------------------------------------------------

 OUTPUT CONTROL FOR STRESS PERIOD    1   TIME STEP  509
    SAVE HEAD FOR ALL LAYERS
 SOLVING FOR ZETA FOR LAYER     1 ZONE     2

     599 UPPER PART EQS.       618 LOWER PART EQS.    BAND WIDTH + 1 =   48
 STRESS PERIOD=  1 TIMESTEP=509 LAYER=  1 ZONE=  2 ACTIVE CELLS= 1217 NUMBER OF EQUATIONS=    1217
 SOLVING FOR ZETA FOR LAYER     2 ZONE     2

     585 UPPER PART EQS.       578 LOWER PART EQS.    BAND WIDTH + 1 =   34
 STRESS PERIOD=  1 TIMESTEP=509 LAYER=  2 ZONE=  2 ACTIVE CELLS= 1163 NUMBER OF EQUATIONS=    1163
 UBUDSV SAVING "      ZETASRF  1" ON UNIT 55 AT TIME STEP509, STRESS PERIOD    1

 HEAD WILL BE SAVED ON UNIT   51 AT END OF TIME STEP  509, STRESS PERIOD    1
 
 SOLVING FOR HEAD 
                                                   Max.-Head-Change                         Max.-Flux-Residual
  Residual-Control   Outer-Iter.   Inner-Iter.     Column Row Layer    Maximum-Head-Change  Column Row Layer    Maximum-Flux-Residual          L2-NORM 
          0                 1           1            40   15     1       0.4300630176E-03      54   17    1         0.4212138656E+00      0.2453119439E+01
          0                 2           1            37   18     1       0.2345598075E-04      37   48    1         0.8043543666E-02      0.5045848967E-01
          0                 3           1            36   21     1       0.1691429639E-04      40   45    1         0.1086488388E-02      0.1511541795E-01
          0                 4           1            33   26     1       0.1057886323E-04      42   38    2         0.5911973149E-03      0.9980968460E-02
          0                 5           1            33   31     2       0.1173213705E-04      32   28    2         0.4842875079E-03      0.8397586609E-02
          0                 6           1            33   31     2       0.8979424727E-05      33   31    2         0.4182414630E-03      0.7471453109E-02

    ------------------------------------------------
       NWT REQUIRED            6 OUTER ITERATIONS 
       AND A TOTAL OF          6 INNER ITERATIONS.
    ------------------------------------------------

 OUTPUT CONTROL FOR STRESS PERIOD    1   TIME STEP  510
    SAVE HEAD FOR ALL LAYERS
 SOLVING FOR ZETA FOR LAYER     1 ZONE     2

     618 UPPER PART EQS.       586 LOWER PART EQS.    BAND WIDTH + 1 =   43
 STRESS PERIOD=  1 TIMESTEP=510 LAYER=  1 ZONE=  2 ACTIVE CELLS= 1204 NUMBER OF EQUATIONS=    1204
 SOLVING FOR ZETA FOR LAYER     2 ZONE     2

     579 UPPER PART EQS.       588 LOWER PART EQS.    BAND WIDTH + 1 =   34
 STRESS PERIOD=  1 TIMESTEP=510 LAYER=  2 ZONE=  2 ACTIVE CELLS= 1167 NUMBER OF EQUATIONS=    1167
 UBUDSV SAVING "      ZETASRF  1" ON UNIT 55 AT TIME STEP510, STRESS PERIOD    1

 HEAD WILL BE SAVED ON UNIT   51 AT END OF TIME STEP  510, STRESS PERIOD    1
 
 SOLVING FOR HEAD 
                                                   Max.-Head-Change                         Max.-Flux-Residual
  Residual-Control   Outer-Iter.   Inner-Iter.     Column Row Layer    Maximum-Head-Change  Column Row Layer    Maximum-Flux-Residual          L2-NORM 
          0                 1           1            54   46     1       0.3991040962E-03       8   15    1         0.3872230410E+00      0.2887314422E+01
          0                 2           1            43   24     1       0.1981592698E-04      46   36    2         0.5403719604E-02      0.4930906139E-01
          0                 3           1            39   24     1       0.1669281976E-04      43   37    2         0.9181717585E-03      0.1742846413E-01
          0                 4           1            35   26     1       0.1091032425E-04      46   30    2         0.6499930021E-03      0.1199732255E-01
          0                 5           1            33   31     2       0.1439214000E-04      33   31    2         0.5321448954E-03      0.1032769311E-01
          0                 6           1            31   31     2       0.9457217085E-05      32   32    2         0.4784558253E-03      0.9252845322E-02

    ------------------------------------------------
       NWT REQUIRED            6 OUTER ITERATIONS 
       AND A TOTAL OF          6 INNER ITERATIONS.
    ------------------------------------------------

 OUTPUT CONTROL FOR STRESS PERIOD    1   TIME STEP  511
    SAVE HEAD FOR ALL LAYERS
 SOLVING FOR ZETA FOR LAYER     1 ZONE     2

     601 UPPER PART EQS.       617 LOWER PART EQS.    BAND WIDTH + 1 =   39
 STRESS PERIOD=  1 TIMESTEP=511 LAYER=  1 ZONE=  2 ACTIVE CELLS= 1218 NUMBER OF EQUATIONS=    1218
 SOLVING FOR ZETA FOR LAYER     2 ZONE     2

     587 UPPER PART EQS.       586 LOWER PART EQS.    BAND WIDTH + 1 =   34
 STRESS PERIOD=  1 TIMESTEP=511 LAYER=  2 ZONE=  2 ACTIVE CELLS= 1173 NUMBER OF EQUATIONS=    1173
 UBUDSV SAVING "      ZETASRF  1" ON UNIT 55 AT TIME STEP511, STRESS PERIOD    1

 HEAD WILL BE SAVED ON UNIT   51 AT END OF TIME STEP  511, STRESS PERIOD    1
 
 SOLVING FOR HEAD 
                                                   Max.-Head-Change                         Max.-Flux-Residual
  Residual-Control   Outer-Iter.   Inner-Iter.     Column Row Layer    Maximum-Head-Change  Column Row Layer    Maximum-Flux-Residual          L2-NORM 
          0                 1           1            45   54     1       0.4398805334E-03      47    8    1         0.3867598738E+00      0.2363569356E+01
          0                 2           1            24   45     1       0.1349346916E-04      19   48    1         0.5319622544E-02      0.4021245219E-01
          0                 3           1            23   30     1       0.1404935591E-04      28   17    1         0.6468059717E-03      0.1315803426E-01
          0                 4           1            30   31     1       0.9309971205E-05      28   28    2         0.4963727639E-03      0.8924913107E-02

    ------------------------------------------------
       NWT REQUIRED            4 OUTER ITERATIONS 
       AND A TOTAL OF          4 INNER ITERATIONS.
    ------------------------------------------------

 OUTPUT CONTROL FOR STRESS PERIOD    1   TIME STEP  512
    SAVE HEAD FOR ALL LAYERS
 SOLVING FOR ZETA FOR LAYER     1 ZONE     2

     602 UPPER PART EQS.       604 LOWER PART EQS.    BAND WIDTH + 1 =   25
 STRESS PERIOD=  1 TIMESTEP=512 LAYER=  1 ZONE=  2 ACTIVE CELLS= 1206 NUMBER OF EQUATIONS=    1206
 SOLVING FOR ZETA FOR LAYER     2 ZONE     2

     589 UPPER PART EQS.       586 LOWER PART EQS.    BAND WIDTH + 1 =   34
 STRESS PERIOD=  1 TIMESTEP=512 LAYER=  2 ZONE=  2 ACTIVE CELLS= 1175 NUMBER OF EQUATIONS=    1175
 UBUDSV SAVING "      ZETASRF  1" ON UNIT 55 AT TIME STEP512, STRESS PERIOD    1

 HEAD WILL BE SAVED ON UNIT   51 AT END OF TIME STEP  512, STRESS PERIOD    1
 
 SOLVING FOR HEAD 
                                                   Max.-Head-Change                         Max.-Flux-Residual
  Residual-Control   Outer-Iter.   Inner-Iter.     Column Row Layer    Maximum-Head-Change  Column Row Layer    Maximum-Flux-Residual          L2-NORM 
          0                 1           1            22   47     1      -0.3841899391E-03      46    8    1         0.4094098454E+00      0.2219378987E+01
          0                 2           1            32   12     2      -0.1517862756E-04      19   16    1        -0.6662221865E-02      0.4158243264E-01
          0                 3           1            36   23     1       0.1387821517E-04      21   16    1        -0.6652987244E-03      0.1414836337E-01
          0                 4           1            33   30     1       0.9540677445E-05      35   29    2         0.5117965289E-03      0.9332602675E-02

    ------------------------------------------------
       NWT REQUIRED            4 OUTER ITERATIONS 
       AND A TOTAL OF          4 INNER ITERATIONS.
    ------------------------------------------------

 OUTPUT CONTROL FOR STRESS PERIOD    1   TIME STEP  513
    SAVE HEAD FOR ALL LAYERS
 SOLVING FOR ZETA FOR LAYER     1 ZONE     2

     611 UPPER PART EQS.       607 LOWER PART EQS.    BAND WIDTH + 1 =   24
 STRESS PERIOD=  1 TIMESTEP=513 LAYER=  1 ZONE=  2 ACTIVE CELLS= 1218 NUMBER OF EQUATIONS=    1218
 SOLVING FOR ZETA FOR LAYER     2 ZONE     2

     589 UPPER PART EQS.       580 LOWER PART EQS.    BAND WIDTH + 1 =   34
 STRESS PERIOD=  1 TIMESTEP=513 LAYER=  2 ZONE=  2 ACTIVE CELLS= 1169 NUMBER OF EQUATIONS=    1169
 UBUDSV SAVING "      ZETASRF  1" ON UNIT 55 AT TIME STEP513, STRESS PERIOD    1

 HEAD WILL BE SAVED ON UNIT   51 AT END OF TIME STEP  513, STRESS PERIOD    1
 
 SOLVING FOR HEAD 
                                                   Max.-Head-Change                         Max.-Flux-Residual
  Residual-Control   Outer-Iter.   Inner-Iter.     Column Row Layer    Maximum-Head-Change  Column Row Layer    Maximum-Flux-Residual          L2-NORM 
          0                 1           1            45    8     1       0.4265911216E-03      45    8    1         0.4250727610E+00      0.2068533568E+01
          0                 2           1            20   17     1       0.2563136875E-04      37   48    1         0.6842504093E-02      0.4837098166E-01
          0                 3           1            24   21     1       0.1925665583E-04      26   42    2         0.1072048627E-02      0.1923791266E-01
          0                 4           1            28   36     2       0.1240062837E-04      37   48    1         0.7602768436E-03      0.1340206572E-01
          0                 5           1            31   31     2       0.1566345172E-04      31   33    2         0.6082355933E-03      0.1153637470E-01
          0                 6           1            30   31     1       0.1149885848E-04      37   48    1         0.5427930268E-03      0.1036453312E-01
          0                 7           1            31   31     2       0.1139142389E-04      17   27    2         0.4867817876E-03      0.9293881242E-02
          0                 8           1            30   31     1       0.9385790253E-05      30   30    2         0.4166824834E-03      0.8432732035E-02

    ------------------------------------------------
       NWT REQUIRED            8 OUTER ITERATIONS 
       AND A TOTAL OF          8 INNER ITERATIONS.
    ------------------------------------------------

 OUTPUT CONTROL FOR STRESS PERIOD    1   TIME STEP  514
    SAVE HEAD FOR ALL LAYERS
 SOLVING FOR ZETA FOR LAYER     1 ZONE     2

     621 UPPER PART EQS.       592 LOWER PART EQS.    BAND WIDTH + 1 =   41
 STRESS PERIOD=  1 TIMESTEP=514 LAYER=  1 ZONE=  2 ACTIVE CELLS= 1213 NUMBER OF EQUATIONS=    1213
 SOLVING FOR ZETA FOR LAYER     2 ZONE     2

     587 UPPER PART EQS.       586 LOWER PART EQS.    BAND WIDTH + 1 =   34
 STRESS PERIOD=  1 TIMESTEP=514 LAYER=  2 ZONE=  2 ACTIVE CELLS= 1173 NUMBER OF EQUATIONS=    1173
 UBUDSV SAVING "      ZETASRF  1" ON UNIT 55 AT TIME STEP514, STRESS PERIOD    1

 HEAD WILL BE SAVED ON UNIT   51 AT END OF TIME STEP  514, STRESS PERIOD    1
 
 SOLVING FOR HEAD 
                                                   Max.-Head-Change                         Max.-Flux-Residual
  Residual-Control   Outer-Iter.   Inner-Iter.     Column Row Layer    Maximum-Head-Change  Column Row Layer    Maximum-Flux-Residual          L2-NORM 
          0                 1           1            40   14     1       0.3824244110E-03      47   54    1         0.3914428505E+00      0.2531946020E+01
          0                 2           1            26   50     2      -0.1532175063E-04      36   15    1         0.5332398008E-02      0.4491177844E-01
          0                 3           1            23   30     1       0.1167898851E-04      22   31    1         0.5581475948E-03      0.1159312002E-01
          0                 4           1            28   29     1       0.8655860015E-05      27   29    2         0.4448308060E-03      0.7490504454E-02

    ------------------------------------------------
       NWT REQUIRED            4 OUTER ITERATIONS 
       AND A TOTAL OF          4 INNER ITERATIONS.
    ------------------------------------------------

 OUTPUT CONTROL FOR STRESS PERIOD    1   TIME STEP  515
    SAVE HEAD FOR ALL LAYERS
 SOLVING FOR ZETA FOR LAYER     1 ZONE     2

     594 UPPER PART EQS.       610 LOWER PART EQS.    BAND WIDTH + 1 =   39
 STRESS PERIOD=  1 TIMESTEP=515 LAYER=  1 ZONE=  2 ACTIVE CELLS= 1204 NUMBER OF EQUATIONS=    1204
 SOLVING FOR ZETA FOR LAYER     2 ZONE     2

     587 UPPER PART EQS.       578 LOWER PART EQS.    BAND WIDTH + 1 =   34
 STRESS PERIOD=  1 TIMESTEP=515 LAYER=  2 ZONE=  2 ACTIVE CELLS= 1165 NUMBER OF EQUATIONS=    1165
 UBUDSV SAVING "      ZETASRF  1" ON UNIT 55 AT TIME STEP515, STRESS PERIOD    1

 HEAD WILL BE SAVED ON UNIT   51 AT END OF TIME STEP  515, STRESS PERIOD    1
 
 SOLVING FOR HEAD 
                                                   Max.-Head-Change                         Max.-Flux-Residual
  Residual-Control   Outer-Iter.   Inner-Iter.     Column Row Layer    Maximum-Head-Change  Column Row Layer    Maximum-Flux-Residual          L2-NORM 
          0                 1           1            40   15     1       0.4050041157E-03      47    8    1         0.3908377288E+00      0.2668260058E+01
          0                 2           1            44   41     1       0.2263651248E-04      37   48    1         0.7432979511E-02      0.5227781960E-01
          0                 3           1            39   41     2       0.1742938012E-04      40   45    1         0.1137095777E-02      0.1650605103E-01
          0                 4           1            35   26     1       0.1032426692E-04      42   38    2         0.6114909180E-03      0.1086581327E-01
          0                 5           1            33   31     2       0.1271709941E-04      33   27    2         0.4980855400E-03      0.9158643065E-02
          0                 6           1            33   31     2       0.9279697760E-05      33   31    2         0.4400265484E-03      0.8161950237E-02

    ------------------------------------------------
       NWT REQUIRED            6 OUTER ITERATIONS 
       AND A TOTAL OF          6 INNER ITERATIONS.
    ------------------------------------------------

 OUTPUT CONTROL FOR STRESS PERIOD    1   TIME STEP  516
    SAVE HEAD FOR ALL LAYERS
 SOLVING FOR ZETA FOR LAYER     1 ZONE     2

     609 UPPER PART EQS.       596 LOWER PART EQS.    BAND WIDTH + 1 =   38
 STRESS PERIOD=  1 TIMESTEP=516 LAYER=  1 ZONE=  2 ACTIVE CELLS= 1205 NUMBER OF EQUATIONS=    1205
 SOLVING FOR ZETA FOR LAYER     2 ZONE     2

     579 UPPER PART EQS.       584 LOWER PART EQS.    BAND WIDTH + 1 =   34
 STRESS PERIOD=  1 TIMESTEP=516 LAYER=  2 ZONE=  2 ACTIVE CELLS= 1163 NUMBER OF EQUATIONS=    1163
 UBUDSV SAVING "      ZETASRF  1" ON UNIT 55 AT TIME STEP516, STRESS PERIOD    1

 HEAD WILL BE SAVED ON UNIT   51 AT END OF TIME STEP  516, STRESS PERIOD    1
 
 SOLVING FOR HEAD 
                                                   Max.-Head-Change                         Max.-Flux-Residual
  Residual-Control   Outer-Iter.   Inner-Iter.     Column Row Layer    Maximum-Head-Change  Column Row Layer    Maximum-Flux-Residual          L2-NORM 
          0                 1           1            46   54     1       0.4001739202E-03       8   16    1         0.4045629465E+00      0.2749251195E+01
          0                 2           1            43   24     1       0.2036010060E-04      46   36    2         0.5530211766E-02      0.4611076708E-01
          0                 3           1            40   25     1       0.1721357070E-04      41   39    2         0.8912556564E-03      0.1786581546E-01
          0                 4           1            36   27     1       0.1045905949E-04      32   48    2         0.6848007164E-03      0.1203396549E-01
          0                 5           1            33   31     2       0.1524707262E-04      33   31    2         0.5396539058E-03      0.1018075766E-01
          0                 6           1            31   31     2       0.9039911979E-05      32   32    2         0.4759795697E-03      0.9019747981E-02

    ------------------------------------------------
       NWT REQUIRED            6 OUTER ITERATIONS 
       AND A TOTAL OF          6 INNER ITERATIONS.
    ------------------------------------------------

 OUTPUT CONTROL FOR STRESS PERIOD    1   TIME STEP  517
    SAVE HEAD FOR ALL LAYERS
 SOLVING FOR ZETA FOR LAYER     1 ZONE     2

     610 UPPER PART EQS.       618 LOWER PART EQS.    BAND WIDTH + 1 =   35
 STRESS PERIOD=  1 TIMESTEP=517 LAYER=  1 ZONE=  2 ACTIVE CELLS= 1228 NUMBER OF EQUATIONS=    1228
 SOLVING FOR ZETA FOR LAYER     2 ZONE     2

     585 UPPER PART EQS.       584 LOWER PART EQS.    BAND WIDTH + 1 =   34
 STRESS PERIOD=  1 TIMESTEP=517 LAYER=  2 ZONE=  2 ACTIVE CELLS= 1169 NUMBER OF EQUATIONS=    1169
 UBUDSV SAVING "      ZETASRF  1" ON UNIT 55 AT TIME STEP517, STRESS PERIOD    1

 HEAD WILL BE SAVED ON UNIT   51 AT END OF TIME STEP  517, STRESS PERIOD    1
 
 SOLVING FOR HEAD 
                                                   Max.-Head-Change                         Max.-Flux-Residual
  Residual-Control   Outer-Iter.   Inner-Iter.     Column Row Layer    Maximum-Head-Change  Column Row Layer    Maximum-Flux-Residual          L2-NORM 
          0                 1           1             8   46     1       0.3996986383E-03       8   46    1         0.4083414057E+00      0.1958252935E+01
          0                 2           1            24   45     1       0.1352400497E-04      19   48    1         0.5174963607E-02      0.3750331916E-01
          0                 3           1            27   22     1       0.1274121275E-04      25   43    2         0.6165592616E-03      0.1210624941E-01
          0                 4           1            28   29     1       0.9970389504E-05      27   29    2         0.4744245306E-03      0.8923062052E-02

    ------------------------------------------------
       NWT REQUIRED            4 OUTER ITERATIONS 
       AND A TOTAL OF          4 INNER ITERATIONS.
    ------------------------------------------------

 OUTPUT CONTROL FOR STRESS PERIOD    1   TIME STEP  518
    SAVE HEAD FOR ALL LAYERS
 SOLVING FOR ZETA FOR LAYER     1 ZONE     2

     611 UPPER PART EQS.       587 LOWER PART EQS.    BAND WIDTH + 1 =   37
 STRESS PERIOD=  1 TIMESTEP=518 LAYER=  1 ZONE=  2 ACTIVE CELLS= 1198 NUMBER OF EQUATIONS=    1198
 SOLVING FOR ZETA FOR LAYER     2 ZONE     2

     589 UPPER PART EQS.       586 LOWER PART EQS.    BAND WIDTH + 1 =   34
 STRESS PERIOD=  1 TIMESTEP=518 LAYER=  2 ZONE=  2 ACTIVE CELLS= 1175 NUMBER OF EQUATIONS=    1175
 UBUDSV SAVING "      ZETASRF  1" ON UNIT 55 AT TIME STEP518, STRESS PERIOD    1

 HEAD WILL BE SAVED ON UNIT   51 AT END OF TIME STEP  518, STRESS PERIOD    1
 
 SOLVING FOR HEAD 
                                                   Max.-Head-Change                         Max.-Flux-Residual
  Residual-Control   Outer-Iter.   Inner-Iter.     Column Row Layer    Maximum-Head-Change  Column Row Layer    Maximum-Flux-Residual          L2-NORM 
          0                 1           1            54   45     1       0.4220389219E-03      54   17    1         0.4241562755E+00      0.2467070217E+01
          0                 2           1            32   50     2      -0.1596812076E-04      19   16    1        -0.6445815882E-02      0.4815273299E-01
          0                 3           1            33   22     1       0.1305976827E-04      22   15    1        -0.6854947651E-03      0.1264071471E-01
          0                 4           1            31   30     1       0.8953242839E-05      31   29    2         0.4652959706E-03      0.7924662529E-02

    ------------------------------------------------
       NWT REQUIRED            4 OUTER ITERATIONS 
       AND A TOTAL OF          4 INNER ITERATIONS.
    ------------------------------------------------

 OUTPUT CONTROL FOR STRESS PERIOD    1   TIME STEP  519
    SAVE HEAD FOR ALL LAYERS
 SOLVING FOR ZETA FOR LAYER     1 ZONE     2

     604 UPPER PART EQS.       598 LOWER PART EQS.    BAND WIDTH + 1 =   23
 STRESS PERIOD=  1 TIMESTEP=519 LAYER=  1 ZONE=  2 ACTIVE CELLS= 1202 NUMBER OF EQUATIONS=    1202
 SOLVING FOR ZETA FOR LAYER     2 ZONE     2

     587 UPPER PART EQS.       586 LOWER PART EQS.    BAND WIDTH + 1 =   34
 STRESS PERIOD=  1 TIMESTEP=519 LAYER=  2 ZONE=  2 ACTIVE CELLS= 1173 NUMBER OF EQUATIONS=    1173
 UBUDSV SAVING "      ZETASRF  1" ON UNIT 55 AT TIME STEP519, STRESS PERIOD    1

 HEAD WILL BE SAVED ON UNIT   51 AT END OF TIME STEP  519, STRESS PERIOD    1
 
 SOLVING FOR HEAD 
                                                   Max.-Head-Change                         Max.-Flux-Residual
  Residual-Control   Outer-Iter.   Inner-Iter.     Column Row Layer    Maximum-Head-Change  Column Row Layer    Maximum-Flux-Residual          L2-NORM 
          0                 1           1            15   22     1       0.4013620423E-03       8   47    1         0.3838436593E+00      0.2624708529E+01
          0                 2           1            20   21     1       0.2893140893E-04      44   41    1         0.7533282929E-02      0.5581290592E-01
          0                 3           1            23   22     1       0.1994984295E-04      45   40    1         0.1313602038E-02      0.2036676388E-01
          0                 4           1            27   37     2       0.1177567228E-04      44   41    1         0.7704670835E-03      0.1357843290E-01
          0                 5           1            31   33     2       0.1603843528E-04      31   33    2         0.5865339064E-03      0.1158818380E-01
          0                 6           1            30   31     1       0.1060602189E-04      30   30    2         0.5332589864E-03      0.1042255987E-01
          0                 7           1            31   31     2       0.1270040080E-04      29   31    2         0.4760014469E-03      0.9299458833E-02
          0                 8           1            30   31     1       0.8371245462E-05      30   30    2         0.4139596602E-03      0.8471449554E-02

    ------------------------------------------------
       NWT REQUIRED            8 OUTER ITERATIONS 
       AND A TOTAL OF          8 INNER ITERATIONS.
    ------------------------------------------------

 OUTPUT CONTROL FOR STRESS PERIOD    1   TIME STEP  520
    SAVE HEAD FOR ALL LAYERS
 SOLVING FOR ZETA FOR LAYER     1 ZONE     2

     613 UPPER PART EQS.       603 LOWER PART EQS.    BAND WIDTH + 1 =   32
 STRESS PERIOD=  1 TIMESTEP=520 LAYER=  1 ZONE=  2 ACTIVE CELLS= 1216 NUMBER OF EQUATIONS=    1216
 SOLVING FOR ZETA FOR LAYER     2 ZONE     2

     587 UPPER PART EQS.       582 LOWER PART EQS.    BAND WIDTH + 1 =   34
 STRESS PERIOD=  1 TIMESTEP=520 LAYER=  2 ZONE=  2 ACTIVE CELLS= 1169 NUMBER OF EQUATIONS=    1169
 UBUDSV SAVING "      ZETASRF  1" ON UNIT 55 AT TIME STEP520, STRESS PERIOD    1

 HEAD WILL BE SAVED ON UNIT   51 AT END OF TIME STEP  520, STRESS PERIOD    1
 
 SOLVING FOR HEAD 
                                                   Max.-Head-Change                         Max.-Flux-Residual
  Residual-Control   Outer-Iter.   Inner-Iter.     Column Row Layer    Maximum-Head-Change  Column Row Layer    Maximum-Flux-Residual          L2-NORM 
          0                 1           1            45   54     1       0.4323570317E-03      45   54    1         0.4217960588E+00      0.2355426893E+01
          0                 2           1            11   35     2      -0.1635462425E-04      32   50    2         0.4542123691E-02      0.3895421794E-01
          0                 3           1            40   27     1       0.1442670791E-04      42   27    1         0.6633632310E-03      0.1447022236E-01
          0                 4           1            35   31     2       0.9750619103E-05      36   28    2         0.5200788335E-03      0.1006021911E-01

    ------------------------------------------------
       NWT REQUIRED            4 OUTER ITERATIONS 
       AND A TOTAL OF          4 INNER ITERATIONS.
    ------------------------------------------------

 OUTPUT CONTROL FOR STRESS PERIOD    1   TIME STEP  521
    SAVE HEAD FOR ALL LAYERS
 SOLVING FOR ZETA FOR LAYER     1 ZONE     2

     603 UPPER PART EQS.       611 LOWER PART EQS.    BAND WIDTH + 1 =   35
 STRESS PERIOD=  1 TIMESTEP=521 LAYER=  1 ZONE=  2 ACTIVE CELLS= 1214 NUMBER OF EQUATIONS=    1214
 SOLVING FOR ZETA FOR LAYER     2 ZONE     2

     589 UPPER PART EQS.       578 LOWER PART EQS.    BAND WIDTH + 1 =   34
 STRESS PERIOD=  1 TIMESTEP=521 LAYER=  2 ZONE=  2 ACTIVE CELLS= 1167 NUMBER OF EQUATIONS=    1167
 UBUDSV SAVING "      ZETASRF  1" ON UNIT 55 AT TIME STEP521, STRESS PERIOD    1

 HEAD WILL BE SAVED ON UNIT   51 AT END OF TIME STEP  521, STRESS PERIOD    1
 
 SOLVING FOR HEAD 
                                                   Max.-Head-Change                         Max.-Flux-Residual
  Residual-Control   Outer-Iter.   Inner-Iter.     Column Row Layer    Maximum-Head-Change  Column Row Layer    Maximum-Flux-Residual          L2-NORM 
          0                 1           1             8   45     1       0.4296015587E-03       8   45    1         0.4223562492E+00      0.2101614324E+01
          0                 2           1            23   15     2      -0.1798330320E-04      19   16    1        -0.6458614735E-02      0.4385275268E-01
          0                 3           1            36   21     1       0.1482724939E-04      27   13    2        -0.7816096935E-03      0.1328608585E-01
          0                 4           1            34   31     1       0.1030702883E-04      42   38    2         0.5529273872E-03      0.9044204400E-02
          0                 5           1            33   31     2       0.1093618310E-04      33   31    2         0.4647102724E-03      0.7502843332E-02
          0                 6           1            33   31     2       0.8319299602E-05      34   30    2         0.3892452752E-03      0.6576789691E-02

    ------------------------------------------------
       NWT REQUIRED            6 OUTER ITERATIONS 
       AND A TOTAL OF          6 INNER ITERATIONS.
    ------------------------------------------------

 OUTPUT CONTROL FOR STRESS PERIOD    1   TIME STEP  522
    SAVE HEAD FOR ALL LAYERS
 SOLVING FOR ZETA FOR LAYER     1 ZONE     2

     610 UPPER PART EQS.       593 LOWER PART EQS.    BAND WIDTH + 1 =   34
 STRESS PERIOD=  1 TIMESTEP=522 LAYER=  1 ZONE=  2 ACTIVE CELLS= 1203 NUMBER OF EQUATIONS=    1203
 SOLVING FOR ZETA FOR LAYER     2 ZONE     2

     585 UPPER PART EQS.       588 LOWER PART EQS.    BAND WIDTH + 1 =   34
 STRESS PERIOD=  1 TIMESTEP=522 LAYER=  2 ZONE=  2 ACTIVE CELLS= 1173 NUMBER OF EQUATIONS=    1173
 UBUDSV SAVING "      ZETASRF  1" ON UNIT 55 AT TIME STEP522, STRESS PERIOD    1

 HEAD WILL BE SAVED ON UNIT   51 AT END OF TIME STEP  522, STRESS PERIOD    1
 
 SOLVING FOR HEAD 
                                                   Max.-Head-Change                         Max.-Flux-Residual
  Residual-Control   Outer-Iter.   Inner-Iter.     Column Row Layer    Maximum-Head-Change  Column Row Layer    Maximum-Flux-Residual          L2-NORM 
          0                 1           1            22   15     1       0.4082166219E-03       8   16    1         0.4093360112E+00      0.2549453993E+01
          0                 2           1            20   17     1       0.2285188409E-04      37   48    1        -0.5980431884E-02      0.5094052484E-01
          0                 3           1            26   42     2       0.1657450077E-04      26   42    2         0.1032818431E-02      0.1540330171E-01
          0                 4           1            27   37     2       0.8862412724E-05      19   37    2         0.5523656372E-03      0.9270602958E-02

    ------------------------------------------------
       NWT REQUIRED            4 OUTER ITERATIONS 
       AND A TOTAL OF          4 INNER ITERATIONS.
    ------------------------------------------------

 OUTPUT CONTROL FOR STRESS PERIOD    1   TIME STEP  523
    SAVE HEAD FOR ALL LAYERS
 SOLVING FOR ZETA FOR LAYER     1 ZONE     2

     595 UPPER PART EQS.       609 LOWER PART EQS.    BAND WIDTH + 1 =   37
 STRESS PERIOD=  1 TIMESTEP=523 LAYER=  1 ZONE=  2 ACTIVE CELLS= 1204 NUMBER OF EQUATIONS=    1204
 SOLVING FOR ZETA FOR LAYER     2 ZONE     2

     585 UPPER PART EQS.       588 LOWER PART EQS.    BAND WIDTH + 1 =   34
 STRESS PERIOD=  1 TIMESTEP=523 LAYER=  2 ZONE=  2 ACTIVE CELLS= 1173 NUMBER OF EQUATIONS=    1173
 UBUDSV SAVING "      ZETASRF  1" ON UNIT 55 AT TIME STEP523, STRESS PERIOD    1

 HEAD WILL BE SAVED ON UNIT   51 AT END OF TIME STEP  523, STRESS PERIOD    1
 
 SOLVING FOR HEAD 
                                                   Max.-Head-Change                         Max.-Flux-Residual
  Residual-Control   Outer-Iter.   Inner-Iter.     Column Row Layer    Maximum-Head-Change  Column Row Layer    Maximum-Flux-Residual          L2-NORM 
          0                 1           1            40   15     1       0.3959619696E-03       8   46    1         0.3973616715E+00      0.2190416588E+01
          0                 2           1            37   18     1       0.2755751224E-04      37   48    1         0.7386234542E-02      0.5117516233E-01
          0                 3           1            40   40     2       0.1955602968E-04      39   46    1         0.1306393718E-02      0.1881647335E-01
          0                 4           1            36   38     2       0.1200413443E-04      44   41    1         0.7815603523E-03      0.1319708584E-01
          0                 5           1            33   31     2       0.1496812816E-04      33   27    2         0.5744090098E-03      0.1144284557E-01
          0                 6           1            32   31     1       0.1079215008E-04      36   17    1         0.5436570193E-03      0.1035937515E-01
          0                 7           1            32   32     2       0.1140854462E-04      46   30    2         0.4804598858E-03      0.9282278612E-02
          0                 8           1            31   31     2       0.8930162777E-05      36   17    1         0.4423761641E-03      0.8447563602E-02

    ------------------------------------------------
       NWT REQUIRED            8 OUTER ITERATIONS 
       AND A TOTAL OF          8 INNER ITERATIONS.
    ------------------------------------------------

 OUTPUT CONTROL FOR STRESS PERIOD    1   TIME STEP  524
    SAVE HEAD FOR ALL LAYERS
 SOLVING FOR ZETA FOR LAYER     1 ZONE     2

     606 UPPER PART EQS.       594 LOWER PART EQS.    BAND WIDTH + 1 =   31
 STRESS PERIOD=  1 TIMESTEP=524 LAYER=  1 ZONE=  2 ACTIVE CELLS= 1200 NUMBER OF EQUATIONS=    1200
 SOLVING FOR ZETA FOR LAYER     2 ZONE     2

     581 UPPER PART EQS.       584 LOWER PART EQS.    BAND WIDTH + 1 =   34
 STRESS PERIOD=  1 TIMESTEP=524 LAYER=  2 ZONE=  2 ACTIVE CELLS= 1165 NUMBER OF EQUATIONS=    1165
 UBUDSV SAVING "      ZETASRF  1" ON UNIT 55 AT TIME STEP524, STRESS PERIOD    1

 HEAD WILL BE SAVED ON UNIT   51 AT END OF TIME STEP  524, STRESS PERIOD    1
 
 SOLVING FOR HEAD 
                                                   Max.-Head-Change                         Max.-Flux-Residual
  Residual-Control   Outer-Iter.   Inner-Iter.     Column Row Layer    Maximum-Head-Change  Column Row Layer    Maximum-Flux-Residual          L2-NORM 
          0                 1           1            45    8     1       0.4378487702E-03      45    8    1         0.3376514377E+00      0.2297491625E+01
          0                 2           1            19   48     1      -0.1500369664E-04      19   48    1        -0.6322171471E-02      0.4117518038E-01
          0                 3           1            34   28     2       0.1091587111E-04      17   47    2        -0.6804419446E-03      0.1158571678E-01
          0                 4           1            33   30     1       0.7033024199E-05      34   30    2         0.3910955255E-03      0.7462937257E-02

    ------------------------------------------------
       NWT REQUIRED            4 OUTER ITERATIONS 
       AND A TOTAL OF          4 INNER ITERATIONS.
    ------------------------------------------------

 OUTPUT CONTROL FOR STRESS PERIOD    1   TIME STEP  525
    SAVE HEAD FOR ALL LAYERS
 SOLVING FOR ZETA FOR LAYER     1 ZONE     2

     601 UPPER PART EQS.       609 LOWER PART EQS.    BAND WIDTH + 1 =   35
 STRESS PERIOD=  1 TIMESTEP=525 LAYER=  1 ZONE=  2 ACTIVE CELLS= 1210 NUMBER OF EQUATIONS=    1210
 SOLVING FOR ZETA FOR LAYER     2 ZONE     2

     589 UPPER PART EQS.       586 LOWER PART EQS.    BAND WIDTH + 1 =   34
 STRESS PERIOD=  1 TIMESTEP=525 LAYER=  2 ZONE=  2 ACTIVE CELLS= 1175 NUMBER OF EQUATIONS=    1175
 UBUDSV SAVING "      ZETASRF  1" ON UNIT 55 AT TIME STEP525, STRESS PERIOD    1

 HEAD WILL BE SAVED ON UNIT   51 AT END OF TIME STEP  525, STRESS PERIOD    1
 
 SOLVING FOR HEAD 
                                                   Max.-Head-Change                         Max.-Flux-Residual
  Residual-Control   Outer-Iter.   Inner-Iter.     Column Row Layer    Maximum-Head-Change  Column Row Layer    Maximum-Flux-Residual          L2-NORM 
          0                 1           1            22   15     1       0.3815802286E-03      47    8    1         0.3046844264E+00      0.1777741143E+01
          0                 2           1            20   17     1       0.1790612123E-04      39   13    2        -0.5762363659E-02      0.4170157988E-01
          0                 3           1            26   42     2       0.1445498990E-04      26   42    2         0.8091014925E-03      0.1311598465E-01
          0                 4           1            29   35     2       0.8221729540E-05      30   38    2         0.4680695999E-03      0.8280241046E-02

    ------------------------------------------------
       NWT REQUIRED            4 OUTER ITERATIONS 
       AND A TOTAL OF          4 INNER ITERATIONS.
    ------------------------------------------------

 OUTPUT CONTROL FOR STRESS PERIOD    1   TIME STEP  526
    SAVE HEAD FOR ALL LAYERS
 SOLVING FOR ZETA FOR LAYER     1 ZONE     2

     612 UPPER PART EQS.       593 LOWER PART EQS.    BAND WIDTH + 1 =   34
 STRESS PERIOD=  1 TIMESTEP=526 LAYER=  1 ZONE=  2 ACTIVE CELLS= 1205 NUMBER OF EQUATIONS=    1205
 SOLVING FOR ZETA FOR LAYER     2 ZONE     2

     591 UPPER PART EQS.       586 LOWER PART EQS.    BAND WIDTH + 1 =   34
 STRESS PERIOD=  1 TIMESTEP=526 LAYER=  2 ZONE=  2 ACTIVE CELLS= 1177 NUMBER OF EQUATIONS=    1177
 UBUDSV SAVING "      ZETASRF  1" ON UNIT 55 AT TIME STEP526, STRESS PERIOD    1

 HEAD WILL BE SAVED ON UNIT   51 AT END OF TIME STEP  526, STRESS PERIOD    1
 
 SOLVING FOR HEAD 
                                                   Max.-Head-Change                         Max.-Flux-Residual
  Residual-Control   Outer-Iter.   Inner-Iter.     Column Row Layer    Maximum-Head-Change  Column Row Layer    Maximum-Flux-Residual          L2-NORM 
          0                 1           1            40   15     1       0.3648187546E-03       8   49    1         0.3412851273E+00      0.2213488619E+01
          0                 2           1            44   41     1       0.2578069448E-04      37   48    1         0.6420659324E-02      0.4974068031E-01
          0                 3           1            41   39     2       0.1863532168E-04      45   40    1         0.1106496306E-02      0.1814292786E-01
          0                 4           1            36   27     1       0.1126422143E-04      44   41    1         0.7617427548E-03      0.1264351869E-01
          0                 5           1            32   32     2       0.1513956348E-04      33   31    2         0.5607577984E-03      0.1093888349E-01
          0                 6           1            30   31     1       0.1013145110E-04      44   41    1         0.5111096479E-03      0.9841841551E-02
          0                 7           1            31   31     2       0.1170181178E-04      33   31    2         0.4509343621E-03      0.8810031150E-02
          0                 8           1            30   31     1       0.8139942069E-05      43   42    1         0.4257205836E-03      0.8000530509E-02

    ------------------------------------------------
       NWT REQUIRED            8 OUTER ITERATIONS 
       AND A TOTAL OF          8 INNER ITERATIONS.
    ------------------------------------------------

 OUTPUT CONTROL FOR STRESS PERIOD    1   TIME STEP  527
    SAVE HEAD FOR ALL LAYERS
 SOLVING FOR ZETA FOR LAYER     1 ZONE     2

     596 UPPER PART EQS.       611 LOWER PART EQS.    BAND WIDTH + 1 =   38
 STRESS PERIOD=  1 TIMESTEP=527 LAYER=  1 ZONE=  2 ACTIVE CELLS= 1207 NUMBER OF EQUATIONS=    1207
 SOLVING FOR ZETA FOR LAYER     2 ZONE     2

     595 UPPER PART EQS.       574 LOWER PART EQS.    BAND WIDTH + 1 =   34
 STRESS PERIOD=  1 TIMESTEP=527 LAYER=  2 ZONE=  2 ACTIVE CELLS= 1169 NUMBER OF EQUATIONS=    1169
 UBUDSV SAVING "      ZETASRF  1" ON UNIT 55 AT TIME STEP527, STRESS PERIOD    1

 HEAD WILL BE SAVED ON UNIT   51 AT END OF TIME STEP  527, STRESS PERIOD    1
 
 SOLVING FOR HEAD 
                                                   Max.-Head-Change                         Max.-Flux-Residual
  Residual-Control   Outer-Iter.   Inner-Iter.     Column Row Layer    Maximum-Head-Change  Column Row Layer    Maximum-Flux-Residual          L2-NORM 
          0                 1           1            22   48     1       0.3760806806E-03      54   50    1         0.3301135084E+00      0.2596882312E+01
          0                 2           1            23   15     2      -0.1850225083E-04      19   48    1        -0.6942649534E-02      0.4480362442E-01
          0                 3           1            34   21     1       0.1076652778E-04      20   16    2        -0.8710774495E-03      0.1095635762E-01
          0                 4           1            32   29     1       0.8087747565E-05      33   31    2         0.4083633086E-03      0.7144557818E-02

    ------------------------------------------------
       NWT REQUIRED            4 OUTER ITERATIONS 
       AND A TOTAL OF          4 INNER ITERATIONS.
    ------------------------------------------------

 OUTPUT CONTROL FOR STRESS PERIOD    1   TIME STEP  528
    SAVE HEAD FOR ALL LAYERS
 SOLVING FOR ZETA FOR LAYER     1 ZONE     2

     603 UPPER PART EQS.       602 LOWER PART EQS.    BAND WIDTH + 1 =   24
 STRESS PERIOD=  1 TIMESTEP=528 LAYER=  1 ZONE=  2 ACTIVE CELLS= 1205 NUMBER OF EQUATIONS=    1205
 SOLVING FOR ZETA FOR LAYER     2 ZONE     2

     595 UPPER PART EQS.       586 LOWER PART EQS.    BAND WIDTH + 1 =   34
 STRESS PERIOD=  1 TIMESTEP=528 LAYER=  2 ZONE=  2 ACTIVE CELLS= 1181 NUMBER OF EQUATIONS=    1181
 UBUDSV SAVING "      ZETASRF  1" ON UNIT 55 AT TIME STEP528, STRESS PERIOD    1

 HEAD WILL BE SAVED ON UNIT   51 AT END OF TIME STEP  528, STRESS PERIOD    1
 
 SOLVING FOR HEAD 
                                                   Max.-Head-Change                         Max.-Flux-Residual
  Residual-Control   Outer-Iter.   Inner-Iter.     Column Row Layer    Maximum-Head-Change  Column Row Layer    Maximum-Flux-Residual          L2-NORM 
          0                 1           1            22   15     1       0.3886621760E-03      14   54    1         0.3685869212E+00      0.2291014182E+01
          0                 2           1            20   17     1       0.2353266235E-04      20   17    1         0.5839831521E-02      0.4441108548E-01
          0                 3           1            26   42     2       0.1618178048E-04      26   42    2         0.9818094915E-03      0.1490159302E-01
          0                 4           1            28   36     2       0.9317130259E-05      29   39    2         0.5299361501E-03      0.9747491417E-02

    ------------------------------------------------
       NWT REQUIRED            4 OUTER ITERATIONS 
       AND A TOTAL OF          4 INNER ITERATIONS.
    ------------------------------------------------

 OUTPUT CONTROL FOR STRESS PERIOD    1   TIME STEP  529
    SAVE HEAD FOR ALL LAYERS
 SOLVING FOR ZETA FOR LAYER     1 ZONE     2

     599 UPPER PART EQS.       597 LOWER PART EQS.    BAND WIDTH + 1 =   25
 STRESS PERIOD=  1 TIMESTEP=529 LAYER=  1 ZONE=  2 ACTIVE CELLS= 1196 NUMBER OF EQUATIONS=    1196
 SOLVING FOR ZETA FOR LAYER     2 ZONE     2

     593 UPPER PART EQS.       586 LOWER PART EQS.    BAND WIDTH + 1 =   34
 STRESS PERIOD=  1 TIMESTEP=529 LAYER=  2 ZONE=  2 ACTIVE CELLS= 1179 NUMBER OF EQUATIONS=    1179
 UBUDSV SAVING "      ZETASRF  1" ON UNIT 55 AT TIME STEP529, STRESS PERIOD    1

 HEAD WILL BE SAVED ON UNIT   51 AT END OF TIME STEP  529, STRESS PERIOD    1
 
 SOLVING FOR HEAD 
                                                   Max.-Head-Change                         Max.-Flux-Residual
  Residual-Control   Outer-Iter.   Inner-Iter.     Column Row Layer    Maximum-Head-Change  Column Row Layer    Maximum-Flux-Residual          L2-NORM 
          0                 1           1            16   54     1       0.4052359800E-03       8   47    1         0.3914544135E+00      0.2357927838E+01
          0                 2           1            44   23     1       0.2204673890E-04      37   48    1         0.6403006809E-02      0.4746992148E-01
          0                 3           1            39   41     2       0.1736574318E-04      39   46    1         0.1062940264E-02      0.1705328394E-01
          0                 4           1            36   27     1       0.1086416762E-04      44   41    1         0.7291436579E-03      0.1135217594E-01
          0                 5           1            33   31     2       0.1386321001E-04      34   30    2         0.5362267894E-03      0.9493836441E-02
          0                 6           1            32   32     2       0.9259918185E-05      33   31    2         0.4631192256E-03      0.8408580951E-02

    ------------------------------------------------
       NWT REQUIRED            6 OUTER ITERATIONS 
       AND A TOTAL OF          6 INNER ITERATIONS.
    ------------------------------------------------

 OUTPUT CONTROL FOR STRESS PERIOD    1   TIME STEP  530
    SAVE HEAD FOR ALL LAYERS
 SOLVING FOR ZETA FOR LAYER     1 ZONE     2

     612 UPPER PART EQS.       586 LOWER PART EQS.    BAND WIDTH + 1 =   39
 STRESS PERIOD=  1 TIMESTEP=530 LAYER=  1 ZONE=  2 ACTIVE CELLS= 1198 NUMBER OF EQUATIONS=    1198
 SOLVING FOR ZETA FOR LAYER     2 ZONE     2

     595 UPPER PART EQS.       588 LOWER PART EQS.    BAND WIDTH + 1 =   34
 STRESS PERIOD=  1 TIMESTEP=530 LAYER=  2 ZONE=  2 ACTIVE CELLS= 1183 NUMBER OF EQUATIONS=    1183
 UBUDSV SAVING "      ZETASRF  1" ON UNIT 55 AT TIME STEP530, STRESS PERIOD    1

 HEAD WILL BE SAVED ON UNIT   51 AT END OF TIME STEP  530, STRESS PERIOD    1
 
 SOLVING FOR HEAD 
                                                   Max.-Head-Change                         Max.-Flux-Residual
  Residual-Control   Outer-Iter.   Inner-Iter.     Column Row Layer    Maximum-Head-Change  Column Row Layer    Maximum-Flux-Residual          L2-NORM 
          0                 1           1            47    8     1       0.3646157482E-03      47    8    1         0.3910905282E+00      0.1919943575E+01
          0                 2           1            21   13     2      -0.1369685736E-04      19   16    1        -0.4362104836E-02      0.3653171419E-01
          0                 3           1            27   22     1       0.1269449089E-04      26   19    1         0.6040892834E-03      0.1202841285E-01
          0                 4           1            28   29     1       0.9014413905E-05      28   28    2         0.4581316604E-03      0.8546291024E-02

    ------------------------------------------------
       NWT REQUIRED            4 OUTER ITERATIONS 
       AND A TOTAL OF          4 INNER ITERATIONS.
    ------------------------------------------------

 OUTPUT CONTROL FOR STRESS PERIOD    1   TIME STEP  531
    SAVE HEAD FOR ALL LAYERS
 SOLVING FOR ZETA FOR LAYER     1 ZONE     2

     593 UPPER PART EQS.       607 LOWER PART EQS.    BAND WIDTH + 1 =   37
 STRESS PERIOD=  1 TIMESTEP=531 LAYER=  1 ZONE=  2 ACTIVE CELLS= 1200 NUMBER OF EQUATIONS=    1200
 SOLVING FOR ZETA FOR LAYER     2 ZONE     2

     595 UPPER PART EQS.       584 LOWER PART EQS.    BAND WIDTH + 1 =   34
 STRESS PERIOD=  1 TIMESTEP=531 LAYER=  2 ZONE=  2 ACTIVE CELLS= 1179 NUMBER OF EQUATIONS=    1179
 UBUDSV SAVING "      ZETASRF  1" ON UNIT 55 AT TIME STEP531, STRESS PERIOD    1

 HEAD WILL BE SAVED ON UNIT   51 AT END OF TIME STEP  531, STRESS PERIOD    1
 
 SOLVING FOR HEAD 
                                                   Max.-Head-Change                         Max.-Flux-Residual
  Residual-Control   Outer-Iter.   Inner-Iter.     Column Row Layer    Maximum-Head-Change  Column Row Layer    Maximum-Flux-Residual          L2-NORM 
          0                 1           1             8   46     1       0.3996645356E-03       8   46    1         0.4065378106E+00      0.2421350686E+01
          0                 2           1            36   12     2      -0.1477270383E-04      19   48    1         0.4636705639E-02      0.4093303372E-01
          0                 3           1            27   41     2       0.1436118422E-04      34   50    2        -0.7019314536E-03      0.1416582378E-01
          0                 4           1            30   27     1       0.9803891816E-05      30   38    2         0.5150393572E-03      0.9588780149E-02

    ------------------------------------------------
       NWT REQUIRED            4 OUTER ITERATIONS 
       AND A TOTAL OF          4 INNER ITERATIONS.
    ------------------------------------------------

 OUTPUT CONTROL FOR STRESS PERIOD    1   TIME STEP  532
    SAVE HEAD FOR ALL LAYERS
 SOLVING FOR ZETA FOR LAYER     1 ZONE     2

     606 UPPER PART EQS.       596 LOWER PART EQS.    BAND WIDTH + 1 =   35
 STRESS PERIOD=  1 TIMESTEP=532 LAYER=  1 ZONE=  2 ACTIVE CELLS= 1202 NUMBER OF EQUATIONS=    1202
 SOLVING FOR ZETA FOR LAYER     2 ZONE     2

     585 UPPER PART EQS.       588 LOWER PART EQS.    BAND WIDTH + 1 =   34
 STRESS PERIOD=  1 TIMESTEP=532 LAYER=  2 ZONE=  2 ACTIVE CELLS= 1173 NUMBER OF EQUATIONS=    1173
 UBUDSV SAVING "      ZETASRF  1" ON UNIT 55 AT TIME STEP532, STRESS PERIOD    1

 HEAD WILL BE SAVED ON UNIT   51 AT END OF TIME STEP  532, STRESS PERIOD    1
 
 SOLVING FOR HEAD 
                                                   Max.-Head-Change                         Max.-Flux-Residual
  Residual-Control   Outer-Iter.   Inner-Iter.     Column Row Layer    Maximum-Head-Change  Column Row Layer    Maximum-Flux-Residual          L2-NORM 
          0                 1           1            46    8     1       0.4005626121E-03      46    8    1         0.4074467980E+00      0.2416679121E+01
          0                 2           1            44   23     1       0.2079636056E-04      19   48    1        -0.5589032768E-02      0.4436268340E-01
          0                 3           1            41   26     1       0.1577628234E-04      41   24    1         0.7956590682E-03      0.1481073625E-01
          0                 4           1            37   30     1       0.1069641517E-04      46   34    2         0.5621353471E-03      0.1047598132E-01
          0                 5           1            33   31     2       0.1275389659E-04      34   30    2         0.5018034419E-03      0.8986238130E-02
          0                 6           1            32   32     2       0.8764550413E-05      33   31    2         0.4307299793E-03      0.8036538406E-02

    ------------------------------------------------
       NWT REQUIRED            6 OUTER ITERATIONS 
       AND A TOTAL OF          6 INNER ITERATIONS.
    ------------------------------------------------

 OUTPUT CONTROL FOR STRESS PERIOD    1   TIME STEP  533
    SAVE HEAD FOR ALL LAYERS
 SOLVING FOR ZETA FOR LAYER     1 ZONE     2

     597 UPPER PART EQS.       608 LOWER PART EQS.    BAND WIDTH + 1 =   36
 STRESS PERIOD=  1 TIMESTEP=533 LAYER=  1 ZONE=  2 ACTIVE CELLS= 1205 NUMBER OF EQUATIONS=    1205
 SOLVING FOR ZETA FOR LAYER     2 ZONE     2

     589 UPPER PART EQS.       576 LOWER PART EQS.    BAND WIDTH + 1 =   34
 STRESS PERIOD=  1 TIMESTEP=533 LAYER=  2 ZONE=  2 ACTIVE CELLS= 1165 NUMBER OF EQUATIONS=    1165
 UBUDSV SAVING "      ZETASRF  1" ON UNIT 55 AT TIME STEP533, STRESS PERIOD    1

 HEAD WILL BE SAVED ON UNIT   51 AT END OF TIME STEP  533, STRESS PERIOD    1
 
 SOLVING FOR HEAD 
                                                   Max.-Head-Change                         Max.-Flux-Residual
  Residual-Control   Outer-Iter.   Inner-Iter.     Column Row Layer    Maximum-Head-Change  Column Row Layer    Maximum-Flux-Residual          L2-NORM 
          0                 1           1            22   15     1       0.3612365628E-03      48    8    1         0.3750441783E+00      0.2215141653E+01
          0                 2           1            20   19     1       0.2028066013E-04      19   48    1         0.5425173166E-02      0.4504537378E-01
          0                 3           1            24   21     1       0.1816804171E-04      23   18    1         0.9556904058E-03      0.1501599440E-01
          0                 4           1            27   37     2       0.1105661651E-04      27   37    2         0.5838795578E-03      0.1068224764E-01
          0                 5           1            29   31     2       0.1223965083E-04      17   35    2         0.5221257898E-03      0.9324337692E-02
          0                 6           1            29   32     1       0.9598344033E-05      17   35    2         0.4453752621E-03      0.8373516484E-02

    ------------------------------------------------
       NWT REQUIRED            6 OUTER ITERATIONS 
       AND A TOTAL OF          6 INNER ITERATIONS.
    ------------------------------------------------

 OUTPUT CONTROL FOR STRESS PERIOD    1   TIME STEP  534
    SAVE HEAD FOR ALL LAYERS
 SOLVING FOR ZETA FOR LAYER     1 ZONE     2

     616 UPPER PART EQS.       586 LOWER PART EQS.    BAND WIDTH + 1 =   41
 STRESS PERIOD=  1 TIMESTEP=534 LAYER=  1 ZONE=  2 ACTIVE CELLS= 1202 NUMBER OF EQUATIONS=    1202
 SOLVING FOR ZETA FOR LAYER     2 ZONE     2

     595 UPPER PART EQS.       586 LOWER PART EQS.    BAND WIDTH + 1 =   34
 STRESS PERIOD=  1 TIMESTEP=534 LAYER=  2 ZONE=  2 ACTIVE CELLS= 1181 NUMBER OF EQUATIONS=    1181
 UBUDSV SAVING "      ZETASRF  1" ON UNIT 55 AT TIME STEP534, STRESS PERIOD    1

 HEAD WILL BE SAVED ON UNIT   51 AT END OF TIME STEP  534, STRESS PERIOD    1
 
 SOLVING FOR HEAD 
                                                   Max.-Head-Change                         Max.-Flux-Residual
  Residual-Control   Outer-Iter.   Inner-Iter.     Column Row Layer    Maximum-Head-Change  Column Row Layer    Maximum-Flux-Residual          L2-NORM 
          0                 1           1            54   15     1       0.3633852451E-03       8   47    1         0.3876236576E+00      0.2493487633E+01
          0                 2           1            38   17     1       0.1956903405E-04      37   48    1         0.7001468463E-02      0.4667740087E-01
          0                 3           1            35   20     1       0.1411979310E-04      40   45    1         0.8561745192E-03      0.1300174520E-01
          0                 4           1            33   26     1       0.8831884230E-05      33   23    2         0.4688983869E-03      0.8413368998E-02

    ------------------------------------------------
       NWT REQUIRED            4 OUTER ITERATIONS 
       AND A TOTAL OF          4 INNER ITERATIONS.
    ------------------------------------------------

 OUTPUT CONTROL FOR STRESS PERIOD    1   TIME STEP  535
    SAVE HEAD FOR ALL LAYERS
 SOLVING FOR ZETA FOR LAYER     1 ZONE     2

     592 UPPER PART EQS.       604 LOWER PART EQS.    BAND WIDTH + 1 =   35
 STRESS PERIOD=  1 TIMESTEP=535 LAYER=  1 ZONE=  2 ACTIVE CELLS= 1196 NUMBER OF EQUATIONS=    1196
 SOLVING FOR ZETA FOR LAYER     2 ZONE     2

     597 UPPER PART EQS.       582 LOWER PART EQS.    BAND WIDTH + 1 =   34
 STRESS PERIOD=  1 TIMESTEP=535 LAYER=  2 ZONE=  2 ACTIVE CELLS= 1179 NUMBER OF EQUATIONS=    1179
 UBUDSV SAVING "      ZETASRF  1" ON UNIT 55 AT TIME STEP535, STRESS PERIOD    1

 HEAD WILL BE SAVED ON UNIT   51 AT END OF TIME STEP  535, STRESS PERIOD    1
 
 SOLVING FOR HEAD 
                                                   Max.-Head-Change                         Max.-Flux-Residual
  Residual-Control   Outer-Iter.   Inner-Iter.     Column Row Layer    Maximum-Head-Change  Column Row Layer    Maximum-Flux-Residual          L2-NORM 
          0                 1           1            15   22     1       0.3620993906E-03      47    8    1         0.3866157979E+00      0.2241357010E+01
          0                 2           1            44   23     1       0.2414041006E-04      44   41    1         0.6634725546E-02      0.4284973605E-01
          0                 3           1            40   25     1       0.1659610855E-04      45   40    1         0.9550041549E-03      0.1525393839E-01
          0                 4           1            36   30     2       0.1058033386E-04      44   41    1         0.6555310232E-03      0.1043258717E-01
          0                 5           1            33   31     2       0.1292092401E-04      33   31    2         0.5114851465E-03      0.8892920890E-02
          0                 6           1            32   32     2       0.9050518705E-05      44   41    1         0.4374368937E-03      0.7925497562E-02

    ------------------------------------------------
       NWT REQUIRED            6 OUTER ITERATIONS 
       AND A TOTAL OF          6 INNER ITERATIONS.
    ------------------------------------------------

 OUTPUT CONTROL FOR STRESS PERIOD    1   TIME STEP  536
    SAVE HEAD FOR ALL LAYERS
 SOLVING FOR ZETA FOR LAYER     1 ZONE     2

     605 UPPER PART EQS.       592 LOWER PART EQS.    BAND WIDTH + 1 =   34
 STRESS PERIOD=  1 TIMESTEP=536 LAYER=  1 ZONE=  2 ACTIVE CELLS= 1197 NUMBER OF EQUATIONS=    1197
 SOLVING FOR ZETA FOR LAYER     2 ZONE     2

     593 UPPER PART EQS.       586 LOWER PART EQS.    BAND WIDTH + 1 =   34
 STRESS PERIOD=  1 TIMESTEP=536 LAYER=  2 ZONE=  2 ACTIVE CELLS= 1179 NUMBER OF EQUATIONS=    1179
 UBUDSV SAVING "      ZETASRF  1" ON UNIT 55 AT TIME STEP536, STRESS PERIOD    1

 HEAD WILL BE SAVED ON UNIT   51 AT END OF TIME STEP  536, STRESS PERIOD    1
 
 SOLVING FOR HEAD 
                                                   Max.-Head-Change                         Max.-Flux-Residual
  Residual-Control   Outer-Iter.   Inner-Iter.     Column Row Layer    Maximum-Head-Change  Column Row Layer    Maximum-Flux-Residual          L2-NORM 
          0                 1           1            48   54     1       0.3427697008E-03       8   48    1         0.3756602796E+00      0.2144191140E+01
          0                 2           1            26   50     2      -0.1541694886E-04      46   36    2         0.4569559459E-02      0.3515496752E-01
          0                 3           1            26   42     2       0.1365943590E-04      25   43    2         0.7260958686E-03      0.1288967078E-01
          0                 4           1            28   29     1       0.8445733824E-05      27   37    2         0.4686424610E-03      0.8810791517E-02

    ------------------------------------------------
       NWT REQUIRED            4 OUTER ITERATIONS 
       AND A TOTAL OF          4 INNER ITERATIONS.
    ------------------------------------------------

 OUTPUT CONTROL FOR STRESS PERIOD    1   TIME STEP  537
    SAVE HEAD FOR ALL LAYERS
 SOLVING FOR ZETA FOR LAYER     1 ZONE     2

     601 UPPER PART EQS.       608 LOWER PART EQS.    BAND WIDTH + 1 =   34
 STRESS PERIOD=  1 TIMESTEP=537 LAYER=  1 ZONE=  2 ACTIVE CELLS= 1209 NUMBER OF EQUATIONS=    1209
 SOLVING FOR ZETA FOR LAYER     2 ZONE     2

     595 UPPER PART EQS.       588 LOWER PART EQS.    BAND WIDTH + 1 =   34
 STRESS PERIOD=  1 TIMESTEP=537 LAYER=  2 ZONE=  2 ACTIVE CELLS= 1183 NUMBER OF EQUATIONS=    1183
 UBUDSV SAVING "      ZETASRF  1" ON UNIT 55 AT TIME STEP537, STRESS PERIOD    1

 HEAD WILL BE SAVED ON UNIT   51 AT END OF TIME STEP  537, STRESS PERIOD    1
 
 SOLVING FOR HEAD 
                                                   Max.-Head-Change                         Max.-Flux-Residual
  Residual-Control   Outer-Iter.   Inner-Iter.     Column Row Layer    Maximum-Head-Change  Column Row Layer    Maximum-Flux-Residual          L2-NORM 
          0                 1           1            48    8     1       0.3419830286E-03      48    8    1         0.3747414692E+00      0.1593531467E+01
          0                 2           1            37   16     1       0.1966947503E-04      37   16    1         0.5287221010E-02      0.3656523925E-01
          0                 3           1            36   21     1       0.1465211047E-04      39   46    1         0.8420993286E-03      0.1394552143E-01
          0                 4           1            32   25     1       0.1015635614E-04      37   16    1         0.5704293199E-03      0.9979958318E-02
          0                 5           1            31   30     1       0.1166385350E-04      31   29    2         0.4718219991E-03      0.8665315325E-02
          0                 6           1            31   31     2       0.9030446595E-05      37   16    1         0.4284546218E-03      0.7787405492E-02

    ------------------------------------------------
       NWT REQUIRED            6 OUTER ITERATIONS 
       AND A TOTAL OF          6 INNER ITERATIONS.
    ------------------------------------------------

 OUTPUT CONTROL FOR STRESS PERIOD    1   TIME STEP  538
    SAVE HEAD FOR ALL LAYERS
 SOLVING FOR ZETA FOR LAYER     1 ZONE     2

     606 UPPER PART EQS.       587 LOWER PART EQS.    BAND WIDTH + 1 =   38
 STRESS PERIOD=  1 TIMESTEP=538 LAYER=  1 ZONE=  2 ACTIVE CELLS= 1193 NUMBER OF EQUATIONS=    1193
 SOLVING FOR ZETA FOR LAYER     2 ZONE     2

     593 UPPER PART EQS.       586 LOWER PART EQS.    BAND WIDTH + 1 =   34
 STRESS PERIOD=  1 TIMESTEP=538 LAYER=  2 ZONE=  2 ACTIVE CELLS= 1179 NUMBER OF EQUATIONS=    1179
 UBUDSV SAVING "      ZETASRF  1" ON UNIT 55 AT TIME STEP538, STRESS PERIOD    1

 HEAD WILL BE SAVED ON UNIT   51 AT END OF TIME STEP  538, STRESS PERIOD    1
 
 SOLVING FOR HEAD 
                                                   Max.-Head-Change                         Max.-Flux-Residual
  Residual-Control   Outer-Iter.   Inner-Iter.     Column Row Layer    Maximum-Head-Change  Column Row Layer    Maximum-Flux-Residual          L2-NORM 
          0                 1           1            54   46     1       0.4005288741E-03       8   16    1         0.4012025367E+00      0.2432321504E+01
          0                 2           1            44   23     1       0.2023208649E-04      18   39    1         0.5081232653E-02      0.3911490127E-01
          0                 3           1            41   26     1       0.1406706962E-04      41   24    1         0.7458870044E-03      0.1395250782E-01
          0                 4           1            36   30     2       0.9013387936E-05      18   39    1         0.5052944234E-03      0.9493165213E-02

    ------------------------------------------------
       NWT REQUIRED            4 OUTER ITERATIONS 
       AND A TOTAL OF          4 INNER ITERATIONS.
    ------------------------------------------------

 OUTPUT CONTROL FOR STRESS PERIOD    1   TIME STEP  539
    SAVE HEAD FOR ALL LAYERS
 SOLVING FOR ZETA FOR LAYER     1 ZONE     2

     590 UPPER PART EQS.       607 LOWER PART EQS.    BAND WIDTH + 1 =   40
 STRESS PERIOD=  1 TIMESTEP=539 LAYER=  1 ZONE=  2 ACTIVE CELLS= 1197 NUMBER OF EQUATIONS=    1197
 SOLVING FOR ZETA FOR LAYER     2 ZONE     2

     593 UPPER PART EQS.       588 LOWER PART EQS.    BAND WIDTH + 1 =   34
 STRESS PERIOD=  1 TIMESTEP=539 LAYER=  2 ZONE=  2 ACTIVE CELLS= 1181 NUMBER OF EQUATIONS=    1181
 UBUDSV SAVING "      ZETASRF  1" ON UNIT 55 AT TIME STEP539, STRESS PERIOD    1

 HEAD WILL BE SAVED ON UNIT   51 AT END OF TIME STEP  539, STRESS PERIOD    1
 
 SOLVING FOR HEAD 
                                                   Max.-Head-Change                         Max.-Flux-Residual
  Residual-Control   Outer-Iter.   Inner-Iter.     Column Row Layer    Maximum-Head-Change  Column Row Layer    Maximum-Flux-Residual          L2-NORM 
          0                 1           1            40   14     1       0.3364804782E-03      12   54    1         0.3277536599E+00      0.2019548439E+01
          0                 2           1            23   13     2      -0.1271841492E-04      42   47    1         0.4705209261E-02      0.3773453759E-01
          0                 3           1            23   26     1       0.1379227999E-04      45   40    1         0.6648552260E-03      0.1352902259E-01
          0                 4           1            28   29     1       0.1021599892E-04      27   33    2         0.5131704081E-03      0.9818222190E-02
          0                 5           1            31   31     2       0.1228985749E-04      30   30    2         0.4845016316E-03      0.8484109367E-02
          0                 6           1            30   31     1       0.8506819525E-05      30   30    2         0.4093845199E-03      0.7591807521E-02

    ------------------------------------------------
       NWT REQUIRED            6 OUTER ITERATIONS 
       AND A TOTAL OF          6 INNER ITERATIONS.
    ------------------------------------------------

 OUTPUT CONTROL FOR STRESS PERIOD    1   TIME STEP  540
    SAVE HEAD FOR ALL LAYERS
 SOLVING FOR ZETA FOR LAYER     1 ZONE     2

     615 UPPER PART EQS.       585 LOWER PART EQS.    BAND WIDTH + 1 =   43
 STRESS PERIOD=  1 TIMESTEP=540 LAYER=  1 ZONE=  2 ACTIVE CELLS= 1200 NUMBER OF EQUATIONS=    1200
 SOLVING FOR ZETA FOR LAYER     2 ZONE     2

     595 UPPER PART EQS.       582 LOWER PART EQS.    BAND WIDTH + 1 =   34
 STRESS PERIOD=  1 TIMESTEP=540 LAYER=  2 ZONE=  2 ACTIVE CELLS= 1177 NUMBER OF EQUATIONS=    1177
 UBUDSV SAVING "      ZETASRF  1" ON UNIT 55 AT TIME STEP540, STRESS PERIOD    1

 HEAD WILL BE SAVED ON UNIT   51 AT END OF TIME STEP  540, STRESS PERIOD    1
 
 SOLVING FOR HEAD 
                                                   Max.-Head-Change                         Max.-Flux-Residual
  Residual-Control   Outer-Iter.   Inner-Iter.     Column Row Layer    Maximum-Head-Change  Column Row Layer    Maximum-Flux-Residual          L2-NORM 
          0                 1           1             8   46     1       0.4052094269E-03      47   54    1         0.3739457675E+00      0.2290029023E+01
          0                 2           1            38   17     1       0.1835748733E-04      37   48    1         0.6241060951E-02      0.4606428361E-01
          0                 3           1            36   21     1       0.1303205298E-04      40   45    1         0.8176736090E-03      0.1281233092E-01
          0                 4           1            32   25     1       0.8543303891E-05      33   23    2         0.4536355385E-03      0.8278500017E-02

    ------------------------------------------------
       NWT REQUIRED            4 OUTER ITERATIONS 
       AND A TOTAL OF          4 INNER ITERATIONS.
    ------------------------------------------------

 OUTPUT CONTROL FOR STRESS PERIOD    1   TIME STEP  541
    SAVE HEAD FOR ALL LAYERS
 SOLVING FOR ZETA FOR LAYER     1 ZONE     2

     592 UPPER PART EQS.       605 LOWER PART EQS.    BAND WIDTH + 1 =   36
 STRESS PERIOD=  1 TIMESTEP=541 LAYER=  1 ZONE=  2 ACTIVE CELLS= 1197 NUMBER OF EQUATIONS=    1197
 SOLVING FOR ZETA FOR LAYER     2 ZONE     2

     597 UPPER PART EQS.       586 LOWER PART EQS.    BAND WIDTH + 1 =   34
 STRESS PERIOD=  1 TIMESTEP=541 LAYER=  2 ZONE=  2 ACTIVE CELLS= 1183 NUMBER OF EQUATIONS=    1183
 UBUDSV SAVING "      ZETASRF  1" ON UNIT 55 AT TIME STEP541, STRESS PERIOD    1

 HEAD WILL BE SAVED ON UNIT   51 AT END OF TIME STEP  541, STRESS PERIOD    1
 
 SOLVING FOR HEAD 
                                                   Max.-Head-Change                         Max.-Flux-Residual
  Residual-Control   Outer-Iter.   Inner-Iter.     Column Row Layer    Maximum-Head-Change  Column Row Layer    Maximum-Flux-Residual          L2-NORM 
          0                 1           1            46    8     1       0.4050922549E-03       8   48    1         0.3676486456E+00      0.1989708656E+01
          0                 2           1            44   23     1       0.2449321572E-04      44   41    1         0.6432126576E-02      0.4248578624E-01
          0                 3           1            40   25     1       0.1640618649E-04      45   40    1         0.1030649536E-02      0.1697656345E-01
          0                 4           1            36   30     2       0.1077559004E-04      44   41    1         0.7973289898E-03      0.1164880098E-01
          0                 5           1            31   31     2       0.1464633427E-04      31   29    2         0.5429113803E-03      0.9977953850E-02
          0                 6           1            30   31     1       0.9351073149E-05      44   41    1         0.5260594786E-03      0.8906782903E-02

    ------------------------------------------------
       NWT REQUIRED            6 OUTER ITERATIONS 
       AND A TOTAL OF          6 INNER ITERATIONS.
    ------------------------------------------------

 OUTPUT CONTROL FOR STRESS PERIOD    1   TIME STEP  542
    SAVE HEAD FOR ALL LAYERS
 SOLVING FOR ZETA FOR LAYER     1 ZONE     2

     609 UPPER PART EQS.       593 LOWER PART EQS.    BAND WIDTH + 1 =   29
 STRESS PERIOD=  1 TIMESTEP=542 LAYER=  1 ZONE=  2 ACTIVE CELLS= 1202 NUMBER OF EQUATIONS=    1202
 SOLVING FOR ZETA FOR LAYER     2 ZONE     2

     591 UPPER PART EQS.       588 LOWER PART EQS.    BAND WIDTH + 1 =   34
 STRESS PERIOD=  1 TIMESTEP=542 LAYER=  2 ZONE=  2 ACTIVE CELLS= 1179 NUMBER OF EQUATIONS=    1179
 UBUDSV SAVING "      ZETASRF  1" ON UNIT 55 AT TIME STEP542, STRESS PERIOD    1

 HEAD WILL BE SAVED ON UNIT   51 AT END OF TIME STEP  542, STRESS PERIOD    1
 
 SOLVING FOR HEAD 
                                                   Max.-Head-Change                         Max.-Flux-Residual
  Residual-Control   Outer-Iter.   Inner-Iter.     Column Row Layer    Maximum-Head-Change  Column Row Layer    Maximum-Flux-Residual          L2-NORM 
          0                 1           1            48    8     1       0.3340356356E-03      48    8    1         0.3669677015E+00      0.2114575457E+01
          0                 2           1            46   15     1      -0.1106878938E-04      46   30    2         0.4596550857E-02      0.3603741560E-01
          0                 3           1            30   30     2       0.1089310758E-04      44   17    1        -0.4983216926E-03      0.1023412896E-01
          0                 4           1            29   30     1       0.8321780352E-05      29   31    2         0.4052129062E-03      0.7287281657E-02

    ------------------------------------------------
       NWT REQUIRED            4 OUTER ITERATIONS 
       AND A TOTAL OF          4 INNER ITERATIONS.
    ------------------------------------------------

 OUTPUT CONTROL FOR STRESS PERIOD    1   TIME STEP  543
    SAVE HEAD FOR ALL LAYERS
 SOLVING FOR ZETA FOR LAYER     1 ZONE     2

     596 UPPER PART EQS.       591 LOWER PART EQS.    BAND WIDTH + 1 =   26
 STRESS PERIOD=  1 TIMESTEP=543 LAYER=  1 ZONE=  2 ACTIVE CELLS= 1187 NUMBER OF EQUATIONS=    1187
 SOLVING FOR ZETA FOR LAYER     2 ZONE     2

     593 UPPER PART EQS.       584 LOWER PART EQS.    BAND WIDTH + 1 =   34
 STRESS PERIOD=  1 TIMESTEP=543 LAYER=  2 ZONE=  2 ACTIVE CELLS= 1177 NUMBER OF EQUATIONS=    1177
 UBUDSV SAVING "      ZETASRF  1" ON UNIT 55 AT TIME STEP543, STRESS PERIOD    1

 HEAD WILL BE SAVED ON UNIT   51 AT END OF TIME STEP  543, STRESS PERIOD    1
 
 SOLVING FOR HEAD 
                                                   Max.-Head-Change                         Max.-Flux-Residual
  Residual-Control   Outer-Iter.   Inner-Iter.     Column Row Layer    Maximum-Head-Change  Column Row Layer    Maximum-Flux-Residual          L2-NORM 
          0                 1           1            49    8     1       0.3070559968E-03      50   54    1         0.3276315796E+00      0.2251289809E+01
          0                 2           1            39   18     1       0.2200788195E-04      37   16    1         0.5017982035E-02      0.4506037106E-01
          0                 3           1            38   42     2       0.1585845108E-04      41   43    2         0.9007627692E-03      0.1458203725E-01
          0                 4           1            36   36     2       0.9187367666E-05      37   39    2         0.5212528354E-03      0.9415471639E-02

    ------------------------------------------------
       NWT REQUIRED            4 OUTER ITERATIONS 
       AND A TOTAL OF          4 INNER ITERATIONS.
    ------------------------------------------------

 OUTPUT CONTROL FOR STRESS PERIOD    1   TIME STEP  544
    SAVE HEAD FOR ALL LAYERS
 SOLVING FOR ZETA FOR LAYER     1 ZONE     2

     612 UPPER PART EQS.       598 LOWER PART EQS.    BAND WIDTH + 1 =   32
 STRESS PERIOD=  1 TIMESTEP=544 LAYER=  1 ZONE=  2 ACTIVE CELLS= 1210 NUMBER OF EQUATIONS=    1210
 SOLVING FOR ZETA FOR LAYER     2 ZONE     2

     589 UPPER PART EQS.       584 LOWER PART EQS.    BAND WIDTH + 1 =   34
 STRESS PERIOD=  1 TIMESTEP=544 LAYER=  2 ZONE=  2 ACTIVE CELLS= 1173 NUMBER OF EQUATIONS=    1173
 UBUDSV SAVING "      ZETASRF  1" ON UNIT 55 AT TIME STEP544, STRESS PERIOD    1

 HEAD WILL BE SAVED ON UNIT   51 AT END OF TIME STEP  544, STRESS PERIOD    1
 
 SOLVING FOR HEAD 
                                                   Max.-Head-Change                         Max.-Flux-Residual
  Residual-Control   Outer-Iter.   Inner-Iter.     Column Row Layer    Maximum-Head-Change  Column Row Layer    Maximum-Flux-Residual          L2-NORM 
          0                 1           1             9   52     1       0.2989560586E-03       9   10    1         0.3234222889E+00      0.2093520714E+01
          0                 2           1            44   23     1       0.1948517975E-04      18   39    1         0.4825078703E-02      0.4092284531E-01
          0                 3           1            23   41     2       0.1431171349E-04      22   19    1         0.7634351259E-03      0.1468691509E-01
          0                 4           1            36   29     1       0.1012356930E-04      18   39    1         0.5804776858E-03      0.1068509750E-01
          0                 5           1            32   32     2       0.1272514619E-04      32   32    2         0.4840069840E-03      0.9345074019E-02
          0                 6           1            30   31     1       0.8841592585E-05      30   30    2         0.4297140038E-03      0.8439912999E-02

    ------------------------------------------------
       NWT REQUIRED            6 OUTER ITERATIONS 
       AND A TOTAL OF          6 INNER ITERATIONS.
    ------------------------------------------------

 OUTPUT CONTROL FOR STRESS PERIOD    1   TIME STEP  545
    SAVE HEAD FOR ALL LAYERS
 SOLVING FOR ZETA FOR LAYER     1 ZONE     2

     598 UPPER PART EQS.       604 LOWER PART EQS.    BAND WIDTH + 1 =   31
 STRESS PERIOD=  1 TIMESTEP=545 LAYER=  1 ZONE=  2 ACTIVE CELLS= 1202 NUMBER OF EQUATIONS=    1202
 SOLVING FOR ZETA FOR LAYER     2 ZONE     2

     593 UPPER PART EQS.       580 LOWER PART EQS.    BAND WIDTH + 1 =   34
 STRESS PERIOD=  1 TIMESTEP=545 LAYER=  2 ZONE=  2 ACTIVE CELLS= 1173 NUMBER OF EQUATIONS=    1173
 UBUDSV SAVING "      ZETASRF  1" ON UNIT 55 AT TIME STEP545, STRESS PERIOD    1

 HEAD WILL BE SAVED ON UNIT   51 AT END OF TIME STEP  545, STRESS PERIOD    1
 
 SOLVING FOR HEAD 
                                                   Max.-Head-Change                         Max.-Flux-Residual
  Residual-Control   Outer-Iter.   Inner-Iter.     Column Row Layer    Maximum-Head-Change  Column Row Layer    Maximum-Flux-Residual          L2-NORM 
          0                 1           1            40   14     1       0.3329266446E-03      34   49    2         0.3154044097E+00      0.1995782542E+01
          0                 2           1            32   50     2      -0.1545084293E-04      39   13    2        -0.5338113261E-02      0.3910958943E-01
          0                 3           1            24   21     1       0.1607080826E-04      25   20    1         0.8053281548E-03      0.1409246241E-01
          0                 4           1            27   26     1       0.1062957663E-04      27   37    2         0.5451415803E-03      0.1036757054E-01
          0                 5           1            29   31     2       0.1206374535E-04      29   31    2         0.4836671632E-03      0.9081036752E-02
          0                 6           1            29   31     2       0.9418712477E-05      29   31    2         0.4254123298E-03      0.8166272471E-02

    ------------------------------------------------
       NWT REQUIRED            6 OUTER ITERATIONS 
       AND A TOTAL OF          6 INNER ITERATIONS.
    ------------------------------------------------

 OUTPUT CONTROL FOR STRESS PERIOD    1   TIME STEP  546
    SAVE HEAD FOR ALL LAYERS
 SOLVING FOR ZETA FOR LAYER     1 ZONE     2

     609 UPPER PART EQS.       582 LOWER PART EQS.    BAND WIDTH + 1 =   42
 STRESS PERIOD=  1 TIMESTEP=546 LAYER=  1 ZONE=  2 ACTIVE CELLS= 1191 NUMBER OF EQUATIONS=    1191
 SOLVING FOR ZETA FOR LAYER     2 ZONE     2

     595 UPPER PART EQS.       586 LOWER PART EQS.    BAND WIDTH + 1 =   34
 STRESS PERIOD=  1 TIMESTEP=546 LAYER=  2 ZONE=  2 ACTIVE CELLS= 1181 NUMBER OF EQUATIONS=    1181
 UBUDSV SAVING "      ZETASRF  1" ON UNIT 55 AT TIME STEP546, STRESS PERIOD    1

 HEAD WILL BE SAVED ON UNIT   51 AT END OF TIME STEP  546, STRESS PERIOD    1
 
 SOLVING FOR HEAD 
                                                   Max.-Head-Change                         Max.-Flux-Residual
  Residual-Control   Outer-Iter.   Inner-Iter.     Column Row Layer    Maximum-Head-Change  Column Row Layer    Maximum-Flux-Residual          L2-NORM 
          0                 1           1             8   15     1       0.3663158070E-03      13   31    2         0.3211335665E+00      0.2231422759E+01
          0                 2           1            37   18     1       0.1486826140E-04      37   48    1         0.6394091252E-02      0.4316304657E-01
          0                 3           1            34   21     1       0.1183160505E-04      39   46    1         0.6734304040E-03      0.1154781345E-01
          0                 4           1            32   29     1       0.7331566402E-05      32   24    2         0.3938082076E-03      0.7199926960E-02

    ------------------------------------------------
       NWT REQUIRED            4 OUTER ITERATIONS 
       AND A TOTAL OF          4 INNER ITERATIONS.
    ------------------------------------------------

 OUTPUT CONTROL FOR STRESS PERIOD    1   TIME STEP  547
    SAVE HEAD FOR ALL LAYERS
 SOLVING FOR ZETA FOR LAYER     1 ZONE     2

     591 UPPER PART EQS.       600 LOWER PART EQS.    BAND WIDTH + 1 =   30
 STRESS PERIOD=  1 TIMESTEP=547 LAYER=  1 ZONE=  2 ACTIVE CELLS= 1191 NUMBER OF EQUATIONS=    1191
 SOLVING FOR ZETA FOR LAYER     2 ZONE     2

     595 UPPER PART EQS.       582 LOWER PART EQS.    BAND WIDTH + 1 =   34
 STRESS PERIOD=  1 TIMESTEP=547 LAYER=  2 ZONE=  2 ACTIVE CELLS= 1177 NUMBER OF EQUATIONS=    1177
 UBUDSV SAVING "      ZETASRF  1" ON UNIT 55 AT TIME STEP547, STRESS PERIOD    1

 HEAD WILL BE SAVED ON UNIT   51 AT END OF TIME STEP  547, STRESS PERIOD    1
 
 SOLVING FOR HEAD 
                                                   Max.-Head-Change                         Max.-Flux-Residual
  Residual-Control   Outer-Iter.   Inner-Iter.     Column Row Layer    Maximum-Head-Change  Column Row Layer    Maximum-Flux-Residual          L2-NORM 
          0                 1           1            47    8     1       0.3643713848E-03      54   12    1         0.3291597116E+00      0.2351061328E+01
          0                 2           1            44   41     1       0.2122716901E-04      44   41    1         0.6421299671E-02      0.4569332656E-01
          0                 3           1            40   25     1       0.1392094412E-04      41   24    1         0.7599642918E-03      0.1347307953E-01
          0                 4           1            36   30     2       0.9069043432E-05      44   41    1         0.5867610143E-03      0.8617631079E-02

    ------------------------------------------------
       NWT REQUIRED            4 OUTER ITERATIONS 
       AND A TOTAL OF          4 INNER ITERATIONS.
    ------------------------------------------------

 OUTPUT CONTROL FOR STRESS PERIOD    1   TIME STEP  548
    SAVE HEAD FOR ALL LAYERS
 SOLVING FOR ZETA FOR LAYER     1 ZONE     2

     610 UPPER PART EQS.       592 LOWER PART EQS.    BAND WIDTH + 1 =   37
 STRESS PERIOD=  1 TIMESTEP=548 LAYER=  1 ZONE=  2 ACTIVE CELLS= 1202 NUMBER OF EQUATIONS=    1202
 SOLVING FOR ZETA FOR LAYER     2 ZONE     2

     597 UPPER PART EQS.       588 LOWER PART EQS.    BAND WIDTH + 1 =   34
 STRESS PERIOD=  1 TIMESTEP=548 LAYER=  2 ZONE=  2 ACTIVE CELLS= 1185 NUMBER OF EQUATIONS=    1185
 UBUDSV SAVING "      ZETASRF  1" ON UNIT 55 AT TIME STEP548, STRESS PERIOD    1

 HEAD WILL BE SAVED ON UNIT   51 AT END OF TIME STEP  548, STRESS PERIOD    1
 
 SOLVING FOR HEAD 
                                                   Max.-Head-Change                         Max.-Flux-Residual
  Residual-Control   Outer-Iter.   Inner-Iter.     Column Row Layer    Maximum-Head-Change  Column Row Layer    Maximum-Flux-Residual          L2-NORM 
          0                 1           1            16   43     1       0.2870505254E-03      40   47    1        -0.2419410898E+00      0.1289048453E+01
          0                 2           1            19   18     1       0.2389095047E-04      19   18    1         0.5400855381E-02      0.3671004672E-01
          0                 3           1            23   41     2       0.1610916062E-04      23   41    2         0.9368029370E-03      0.1432429582E-01
          0                 4           1            27   37     2       0.9567905332E-05      19   42    1         0.5808028542E-03      0.9878298260E-02

    ------------------------------------------------
       NWT REQUIRED            4 OUTER ITERATIONS 
       AND A TOTAL OF          4 INNER ITERATIONS.
    ------------------------------------------------

 OUTPUT CONTROL FOR STRESS PERIOD    1   TIME STEP  549
    SAVE HEAD FOR ALL LAYERS
 SOLVING FOR ZETA FOR LAYER     1 ZONE     2

     606 UPPER PART EQS.       594 LOWER PART EQS.    BAND WIDTH + 1 =   29
 STRESS PERIOD=  1 TIMESTEP=549 LAYER=  1 ZONE=  2 ACTIVE CELLS= 1200 NUMBER OF EQUATIONS=    1200
 SOLVING FOR ZETA FOR LAYER     2 ZONE     2

     597 UPPER PART EQS.       586 LOWER PART EQS.    BAND WIDTH + 1 =   34
 STRESS PERIOD=  1 TIMESTEP=549 LAYER=  2 ZONE=  2 ACTIVE CELLS= 1183 NUMBER OF EQUATIONS=    1183
 UBUDSV SAVING "      ZETASRF  1" ON UNIT 55 AT TIME STEP549, STRESS PERIOD    1

 HEAD WILL BE SAVED ON UNIT   51 AT END OF TIME STEP  549, STRESS PERIOD    1
 
 SOLVING FOR HEAD 
                                                   Max.-Head-Change                         Max.-Flux-Residual
  Residual-Control   Outer-Iter.   Inner-Iter.     Column Row Layer    Maximum-Head-Change  Column Row Layer    Maximum-Flux-Residual          L2-NORM 
          0                 1           1            26   13     2       0.2739090380E-03      26   13    2         0.3141544262E+00      0.1420951652E+01
          0                 2           1            37   16     1       0.1607556543E-04      37   16    1         0.4648141699E-02      0.3374503147E-01
          0                 3           1            34   21     1       0.1454210356E-04      39   46    1         0.7637018217E-03      0.1352243464E-01
          0                 4           1            31   30     1       0.1031358685E-04      31   25    2         0.5253264508E-03      0.9888670801E-02
          0                 5           1            31   31     2       0.1240193990E-04      31   29    2         0.4920798136E-03      0.8563689944E-02
          0                 6           1            30   31     1       0.8800940787E-05      30   30    2         0.4145841909E-03      0.7644235540E-02

    ------------------------------------------------
       NWT REQUIRED            6 OUTER ITERATIONS 
       AND A TOTAL OF          6 INNER ITERATIONS.
    ------------------------------------------------

 OUTPUT CONTROL FOR STRESS PERIOD    1   TIME STEP  550
    SAVE HEAD FOR ALL LAYERS
 SOLVING FOR ZETA FOR LAYER     1 ZONE     2

     610 UPPER PART EQS.       589 LOWER PART EQS.    BAND WIDTH + 1 =   35
 STRESS PERIOD=  1 TIMESTEP=550 LAYER=  1 ZONE=  2 ACTIVE CELLS= 1199 NUMBER OF EQUATIONS=    1199
 SOLVING FOR ZETA FOR LAYER     2 ZONE     2

     595 UPPER PART EQS.       588 LOWER PART EQS.    BAND WIDTH + 1 =   34
 STRESS PERIOD=  1 TIMESTEP=550 LAYER=  2 ZONE=  2 ACTIVE CELLS= 1183 NUMBER OF EQUATIONS=    1183
 UBUDSV SAVING "      ZETASRF  1" ON UNIT 55 AT TIME STEP550, STRESS PERIOD    1

 HEAD WILL BE SAVED ON UNIT   51 AT END OF TIME STEP  550, STRESS PERIOD    1
 
 SOLVING FOR HEAD 
                                                   Max.-Head-Change                         Max.-Flux-Residual
  Residual-Control   Outer-Iter.   Inner-Iter.     Column Row Layer    Maximum-Head-Change  Column Row Layer    Maximum-Flux-Residual          L2-NORM 
          0                 1           1            13    8     1       0.2949368588E-03      49   54    1         0.3338895556E+00      0.1913879513E+01
          0                 2           1            44   41     1       0.2065506831E-04      40   47    1         0.4749904399E-02      0.3735358282E-01
          0                 3           1            41   42     1       0.1382101908E-04      42   43    1         0.7830175465E-03      0.1292678647E-01
          0                 4           1            36   27     1       0.9718581056E-05      44   41    1         0.5248354697E-03      0.9603952236E-02

    ------------------------------------------------
       NWT REQUIRED            4 OUTER ITERATIONS 
       AND A TOTAL OF          4 INNER ITERATIONS.
    ------------------------------------------------

 OUTPUT CONTROL FOR STRESS PERIOD    1   TIME STEP  551
    SAVE HEAD FOR ALL LAYERS
 SOLVING FOR ZETA FOR LAYER     1 ZONE     2

     579 UPPER PART EQS.       595 LOWER PART EQS.    BAND WIDTH + 1 =   31
 STRESS PERIOD=  1 TIMESTEP=551 LAYER=  1 ZONE=  2 ACTIVE CELLS= 1174 NUMBER OF EQUATIONS=    1174
 SOLVING FOR ZETA FOR LAYER     2 ZONE     2

     593 UPPER PART EQS.       588 LOWER PART EQS.    BAND WIDTH + 1 =   34
 STRESS PERIOD=  1 TIMESTEP=551 LAYER=  2 ZONE=  2 ACTIVE CELLS= 1181 NUMBER OF EQUATIONS=    1181
 UBUDSV SAVING "      ZETASRF  1" ON UNIT 55 AT TIME STEP551, STRESS PERIOD    1

 HEAD WILL BE SAVED ON UNIT   51 AT END OF TIME STEP  551, STRESS PERIOD    1
 
 SOLVING FOR HEAD 
                                                   Max.-Head-Change                         Max.-Flux-Residual
  Residual-Control   Outer-Iter.   Inner-Iter.     Column Row Layer    Maximum-Head-Change  Column Row Layer    Maximum-Flux-Residual          L2-NORM 
          0                 1           1            46   54     1       0.4083239726E-03      16    8    1         0.3948918720E+00      0.2787249481E+01
          0                 2           1            15   51     2      -0.1820604809E-04      37   50    1         0.4600728637E-02      0.4118108853E-01
          0                 3           1            39   31     2       0.1379069751E-04      16   49    1        -0.7532374883E-03      0.1414333675E-01
          0                 4           1            30   31     1       0.8535661529E-05      35   29    2         0.4785559231E-03      0.9037778163E-02

    ------------------------------------------------
       NWT REQUIRED            4 OUTER ITERATIONS 
       AND A TOTAL OF          4 INNER ITERATIONS.
    ------------------------------------------------

 OUTPUT CONTROL FOR STRESS PERIOD    1   TIME STEP  552
    SAVE HEAD FOR ALL LAYERS
 SOLVING FOR ZETA FOR LAYER     1 ZONE     2

     613 UPPER PART EQS.       586 LOWER PART EQS.    BAND WIDTH + 1 =   44
 STRESS PERIOD=  1 TIMESTEP=552 LAYER=  1 ZONE=  2 ACTIVE CELLS= 1199 NUMBER OF EQUATIONS=    1199
 SOLVING FOR ZETA FOR LAYER     2 ZONE     2

     593 UPPER PART EQS.       588 LOWER PART EQS.    BAND WIDTH + 1 =   34
 STRESS PERIOD=  1 TIMESTEP=552 LAYER=  2 ZONE=  2 ACTIVE CELLS= 1181 NUMBER OF EQUATIONS=    1181
 UBUDSV SAVING "      ZETASRF  1" ON UNIT 55 AT TIME STEP552, STRESS PERIOD    1

 HEAD WILL BE SAVED ON UNIT   51 AT END OF TIME STEP  552, STRESS PERIOD    1
 
 SOLVING FOR HEAD 
                                                   Max.-Head-Change                         Max.-Flux-Residual
  Residual-Control   Outer-Iter.   Inner-Iter.     Column Row Layer    Maximum-Head-Change  Column Row Layer    Maximum-Flux-Residual          L2-NORM 
          0                 1           1            48    8     1       0.3436338533E-03      48    8    1         0.3725493633E+00      0.1794631598E+01
          0                 2           1            42   45     1       0.1681318427E-04      37   48    1         0.6141902325E-02      0.4320338477E-01
          0                 3           1            26   42     2       0.1306683363E-04      40   45    1         0.8488242328E-03      0.1362870097E-01
          0                 4           1            31   26     1       0.9576231063E-05      29   39    2         0.4930098803E-03      0.9549736762E-02

    ------------------------------------------------
       NWT REQUIRED            4 OUTER ITERATIONS 
       AND A TOTAL OF          4 INNER ITERATIONS.
    ------------------------------------------------

 OUTPUT CONTROL FOR STRESS PERIOD    1   TIME STEP  553
    SAVE HEAD FOR ALL LAYERS
 SOLVING FOR ZETA FOR LAYER     1 ZONE     2

     602 UPPER PART EQS.       593 LOWER PART EQS.    BAND WIDTH + 1 =   24
 STRESS PERIOD=  1 TIMESTEP=553 LAYER=  1 ZONE=  2 ACTIVE CELLS= 1195 NUMBER OF EQUATIONS=    1195
 SOLVING FOR ZETA FOR LAYER     2 ZONE     2

     593 UPPER PART EQS.       586 LOWER PART EQS.    BAND WIDTH + 1 =   34
 STRESS PERIOD=  1 TIMESTEP=553 LAYER=  2 ZONE=  2 ACTIVE CELLS= 1179 NUMBER OF EQUATIONS=    1179
 UBUDSV SAVING "      ZETASRF  1" ON UNIT 55 AT TIME STEP553, STRESS PERIOD    1

 HEAD WILL BE SAVED ON UNIT   51 AT END OF TIME STEP  553, STRESS PERIOD    1
 
 SOLVING FOR HEAD 
                                                   Max.-Head-Change                         Max.-Flux-Residual
  Residual-Control   Outer-Iter.   Inner-Iter.     Column Row Layer    Maximum-Head-Change  Column Row Layer    Maximum-Flux-Residual          L2-NORM 
          0                 1           1            15   54     1       0.3711872221E-03      47   54    1         0.3900641848E+00      0.2155158424E+01
          0                 2           1            44   23     1       0.2336645312E-04      44   41    1         0.6258659148E-02      0.4304385142E-01
          0                 3           1            40   25     1       0.1749169869E-04      45   40    1         0.9792492672E-03      0.1559420894E-01
          0                 4           1            36   28     2       0.1111275173E-04      44   41    1         0.6556145476E-03      0.1127687029E-01
          0                 5           1            33   31     2       0.1446312493E-04      33   31    2         0.5327443436E-03      0.9841131116E-02
          0                 6           1            32   32     2       0.8911021181E-05      44   41    1         0.5043552720E-03      0.8854316877E-02

    ------------------------------------------------
       NWT REQUIRED            6 OUTER ITERATIONS 
       AND A TOTAL OF          6 INNER ITERATIONS.
    ------------------------------------------------

 OUTPUT CONTROL FOR STRESS PERIOD    1   TIME STEP  554
    SAVE HEAD FOR ALL LAYERS
 SOLVING FOR ZETA FOR LAYER     1 ZONE     2

     608 UPPER PART EQS.       584 LOWER PART EQS.    BAND WIDTH + 1 =   37
 STRESS PERIOD=  1 TIMESTEP=554 LAYER=  1 ZONE=  2 ACTIVE CELLS= 1192 NUMBER OF EQUATIONS=    1192
 SOLVING FOR ZETA FOR LAYER     2 ZONE     2

     597 UPPER PART EQS.       588 LOWER PART EQS.    BAND WIDTH + 1 =   34
 STRESS PERIOD=  1 TIMESTEP=554 LAYER=  2 ZONE=  2 ACTIVE CELLS= 1185 NUMBER OF EQUATIONS=    1185
 UBUDSV SAVING "      ZETASRF  1" ON UNIT 55 AT TIME STEP554, STRESS PERIOD    1

 HEAD WILL BE SAVED ON UNIT   51 AT END OF TIME STEP  554, STRESS PERIOD    1
 
 SOLVING FOR HEAD 
                                                   Max.-Head-Change                         Max.-Flux-Residual
  Residual-Control   Outer-Iter.   Inner-Iter.     Column Row Layer    Maximum-Head-Change  Column Row Layer    Maximum-Flux-Residual          L2-NORM 
          0                 1           1            47    8     1       0.3686054366E-03      47    8    1         0.3845741982E+00      0.1961328461E+01
          0                 2           1            21   44     1       0.1381534028E-04      43   14    1        -0.4022272274E-02      0.3398186363E-01
          0                 3           1            24   40     2       0.1385394598E-04      26   43    1         0.6453853029E-03      0.1254307852E-01
          0                 4           1            28   29     1       0.9384881943E-05      27   37    2         0.4868682718E-03      0.9102681626E-02

    ------------------------------------------------
       NWT REQUIRED            4 OUTER ITERATIONS 
       AND A TOTAL OF          4 INNER ITERATIONS.
    ------------------------------------------------

 OUTPUT CONTROL FOR STRESS PERIOD    1   TIME STEP  555
    SAVE HEAD FOR ALL LAYERS
 SOLVING FOR ZETA FOR LAYER     1 ZONE     2

     598 UPPER PART EQS.       599 LOWER PART EQS.    BAND WIDTH + 1 =   22
 STRESS PERIOD=  1 TIMESTEP=555 LAYER=  1 ZONE=  2 ACTIVE CELLS= 1197 NUMBER OF EQUATIONS=    1197
 SOLVING FOR ZETA FOR LAYER     2 ZONE     2

     597 UPPER PART EQS.       580 LOWER PART EQS.    BAND WIDTH + 1 =   34
 STRESS PERIOD=  1 TIMESTEP=555 LAYER=  2 ZONE=  2 ACTIVE CELLS= 1177 NUMBER OF EQUATIONS=    1177
 UBUDSV SAVING "      ZETASRF  1" ON UNIT 55 AT TIME STEP555, STRESS PERIOD    1

 HEAD WILL BE SAVED ON UNIT   51 AT END OF TIME STEP  555, STRESS PERIOD    1
 
 SOLVING FOR HEAD 
                                                   Max.-Head-Change                         Max.-Flux-Residual
  Residual-Control   Outer-Iter.   Inner-Iter.     Column Row Layer    Maximum-Head-Change  Column Row Layer    Maximum-Flux-Residual          L2-NORM 
          0                 1           1            49    8     1       0.3070656024E-03      54   12    1         0.3269152668E+00      0.2332890994E+01
          0                 2           1            37   16     1       0.1374214855E-04      19   18    1        -0.4455030111E-02      0.3846775989E-01
          0                 3           1            34   21     1       0.1201936389E-04      34   19    1         0.6065699795E-03      0.1151303355E-01
          0                 4           1            33   31     2       0.9287170597E-05      33   31    2         0.4664277973E-03      0.7839854878E-02

    ------------------------------------------------
       NWT REQUIRED            4 OUTER ITERATIONS 
       AND A TOTAL OF          4 INNER ITERATIONS.
    ------------------------------------------------

 OUTPUT CONTROL FOR STRESS PERIOD    1   TIME STEP  556
    SAVE HEAD FOR ALL LAYERS
 SOLVING FOR ZETA FOR LAYER     1 ZONE     2

     603 UPPER PART EQS.       594 LOWER PART EQS.    BAND WIDTH + 1 =   32
 STRESS PERIOD=  1 TIMESTEP=556 LAYER=  1 ZONE=  2 ACTIVE CELLS= 1197 NUMBER OF EQUATIONS=    1197
 SOLVING FOR ZETA FOR LAYER     2 ZONE     2

     593 UPPER PART EQS.       588 LOWER PART EQS.    BAND WIDTH + 1 =   34
 STRESS PERIOD=  1 TIMESTEP=556 LAYER=  2 ZONE=  2 ACTIVE CELLS= 1181 NUMBER OF EQUATIONS=    1181
 UBUDSV SAVING "      ZETASRF  1" ON UNIT 55 AT TIME STEP556, STRESS PERIOD    1

 HEAD WILL BE SAVED ON UNIT   51 AT END OF TIME STEP  556, STRESS PERIOD    1
 
 SOLVING FOR HEAD 
                                                   Max.-Head-Change                         Max.-Flux-Residual
  Residual-Control   Outer-Iter.   Inner-Iter.     Column Row Layer    Maximum-Head-Change  Column Row Layer    Maximum-Flux-Residual          L2-NORM 
          0                 1           1            54   14     1       0.3454753301E-03      54   48    1         0.3730457347E+00      0.2122329103E+01
          0                 2           1            43   20     1       0.2207015541E-04      40   47    1         0.4650285806E-02      0.4183854325E-01
          0                 3           1            40   23     1       0.1554291651E-04      40   45    1         0.8872174697E-03      0.1535855310E-01
          0                 4           1            36   27     1       0.9209252757E-05      46   34    2         0.6431114451E-03      0.1053575627E-01

    ------------------------------------------------
       NWT REQUIRED            4 OUTER ITERATIONS 
       AND A TOTAL OF          4 INNER ITERATIONS.
    ------------------------------------------------

 OUTPUT CONTROL FOR STRESS PERIOD    1   TIME STEP  557
    SAVE HEAD FOR ALL LAYERS
 SOLVING FOR ZETA FOR LAYER     1 ZONE     2

     598 UPPER PART EQS.       600 LOWER PART EQS.    BAND WIDTH + 1 =   27
 STRESS PERIOD=  1 TIMESTEP=557 LAYER=  1 ZONE=  2 ACTIVE CELLS= 1198 NUMBER OF EQUATIONS=    1198
 SOLVING FOR ZETA FOR LAYER     2 ZONE     2

     593 UPPER PART EQS.       586 LOWER PART EQS.    BAND WIDTH + 1 =   34
 STRESS PERIOD=  1 TIMESTEP=557 LAYER=  2 ZONE=  2 ACTIVE CELLS= 1179 NUMBER OF EQUATIONS=    1179
 UBUDSV SAVING "      ZETASRF  1" ON UNIT 55 AT TIME STEP557, STRESS PERIOD    1

 HEAD WILL BE SAVED ON UNIT   51 AT END OF TIME STEP  557, STRESS PERIOD    1
 
 SOLVING FOR HEAD 
                                                   Max.-Head-Change                         Max.-Flux-Residual
  Residual-Control   Outer-Iter.   Inner-Iter.     Column Row Layer    Maximum-Head-Change  Column Row Layer    Maximum-Flux-Residual          L2-NORM 
          0                 1           1             8   46     1       0.4092264290E-03       8   46    1         0.4056366674E+00      0.1602465255E+01
          0                 2           1            21   44     1       0.1617949343E-04      24   14    2         0.4739494716E-02      0.3664829613E-01
          0                 3           1            23   39     2       0.1673891943E-04      23   41    2         0.7972545010E-03      0.1479262514E-01
          0                 4           1            27   33     2       0.1111189983E-04      27   37    2         0.5806168011E-03      0.1105426856E-01
          0                 5           1            29   31     2       0.1377504616E-04      30   30    2         0.5288457725E-03      0.9685999451E-02
          0                 6           1            29   31     2       0.9473113379E-05      29   31    2         0.4551362939E-03      0.8722227742E-02

    ------------------------------------------------
       NWT REQUIRED            6 OUTER ITERATIONS 
       AND A TOTAL OF          6 INNER ITERATIONS.
    ------------------------------------------------

 OUTPUT CONTROL FOR STRESS PERIOD    1   TIME STEP  558
    SAVE HEAD FOR ALL LAYERS
 SOLVING FOR ZETA FOR LAYER     1 ZONE     2

     614 UPPER PART EQS.       589 LOWER PART EQS.    BAND WIDTH + 1 =   40
 STRESS PERIOD=  1 TIMESTEP=558 LAYER=  1 ZONE=  2 ACTIVE CELLS= 1203 NUMBER OF EQUATIONS=    1203
 SOLVING FOR ZETA FOR LAYER     2 ZONE     2

     597 UPPER PART EQS.       586 LOWER PART EQS.    BAND WIDTH + 1 =   34
 STRESS PERIOD=  1 TIMESTEP=558 LAYER=  2 ZONE=  2 ACTIVE CELLS= 1183 NUMBER OF EQUATIONS=    1183
 UBUDSV SAVING "      ZETASRF  1" ON UNIT 55 AT TIME STEP558, STRESS PERIOD    1

 HEAD WILL BE SAVED ON UNIT   51 AT END OF TIME STEP  558, STRESS PERIOD    1
 
 SOLVING FOR HEAD 
                                                   Max.-Head-Change                         Max.-Flux-Residual
  Residual-Control   Outer-Iter.   Inner-Iter.     Column Row Layer    Maximum-Head-Change  Column Row Layer    Maximum-Flux-Residual          L2-NORM 
          0                 1           1            40   47     1       0.3159802438E-03      49   54    1         0.3477884047E+00      0.1876055654E+01
          0                 2           1            37   18     1       0.1413124214E-04      37   48    1         0.5470925772E-02      0.3811024109E-01
          0                 3           1            34   21     1       0.1201239981E-04      34   19    1         0.6300564950E-03      0.1128048370E-01
          0                 4           1            31   28     1       0.8946388833E-05      32   24    2         0.4383692276E-03      0.7927372930E-02

    ------------------------------------------------
       NWT REQUIRED            4 OUTER ITERATIONS 
       AND A TOTAL OF          4 INNER ITERATIONS.
    ------------------------------------------------

 OUTPUT CONTROL FOR STRESS PERIOD    1   TIME STEP  559
    SAVE HEAD FOR ALL LAYERS
 SOLVING FOR ZETA FOR LAYER     1 ZONE     2

     594 UPPER PART EQS.       599 LOWER PART EQS.    BAND WIDTH + 1 =   28
 STRESS PERIOD=  1 TIMESTEP=559 LAYER=  1 ZONE=  2 ACTIVE CELLS= 1193 NUMBER OF EQUATIONS=    1193
 SOLVING FOR ZETA FOR LAYER     2 ZONE     2

     591 UPPER PART EQS.       586 LOWER PART EQS.    BAND WIDTH + 1 =   34
 STRESS PERIOD=  1 TIMESTEP=559 LAYER=  2 ZONE=  2 ACTIVE CELLS= 1177 NUMBER OF EQUATIONS=    1177
 UBUDSV SAVING "      ZETASRF  1" ON UNIT 55 AT TIME STEP559, STRESS PERIOD    1

 HEAD WILL BE SAVED ON UNIT   51 AT END OF TIME STEP  559, STRESS PERIOD    1
 
 SOLVING FOR HEAD 
                                                   Max.-Head-Change                         Max.-Flux-Residual
  Residual-Control   Outer-Iter.   Inner-Iter.     Column Row Layer    Maximum-Head-Change  Column Row Layer    Maximum-Flux-Residual          L2-NORM 
          0                 1           1            15   22     1       0.3237053061E-03      50   54    1         0.3248987949E+00      0.2250986755E+01
          0                 2           1            44   23     1       0.1962821636E-04      50   39    1         0.6056118991E-02      0.4326041971E-01
          0                 3           1            40   25     1       0.1428889064E-04      45   40    1         0.9017584195E-03      0.1295908673E-01
          0                 4           1            37   29     2       0.9518627934E-05      44   41    1         0.5706286729E-03      0.8947569098E-02

    ------------------------------------------------
       NWT REQUIRED            4 OUTER ITERATIONS 
       AND A TOTAL OF          4 INNER ITERATIONS.
    ------------------------------------------------

 OUTPUT CONTROL FOR STRESS PERIOD    1   TIME STEP  560
    SAVE HEAD FOR ALL LAYERS
 SOLVING FOR ZETA FOR LAYER     1 ZONE     2

     607 UPPER PART EQS.       586 LOWER PART EQS.    BAND WIDTH + 1 =   38
 STRESS PERIOD=  1 TIMESTEP=560 LAYER=  1 ZONE=  2 ACTIVE CELLS= 1193 NUMBER OF EQUATIONS=    1193
 SOLVING FOR ZETA FOR LAYER     2 ZONE     2

     595 UPPER PART EQS.       586 LOWER PART EQS.    BAND WIDTH + 1 =   34
 STRESS PERIOD=  1 TIMESTEP=560 LAYER=  2 ZONE=  2 ACTIVE CELLS= 1181 NUMBER OF EQUATIONS=    1181
 UBUDSV SAVING "      ZETASRF  1" ON UNIT 55 AT TIME STEP560, STRESS PERIOD    1

 HEAD WILL BE SAVED ON UNIT   51 AT END OF TIME STEP  560, STRESS PERIOD    1
 
 SOLVING FOR HEAD 
                                                   Max.-Head-Change                         Max.-Flux-Residual
  Residual-Control   Outer-Iter.   Inner-Iter.     Column Row Layer    Maximum-Head-Change  Column Row Layer    Maximum-Flux-Residual          L2-NORM 
          0                 1           1            46    8     1       0.4097209309E-03      46    8    1         0.4039012279E+00      0.1652285317E+01
          0                 2           1            19   18     1       0.2275887193E-04      36   48    2         0.5027386524E-02      0.3789653010E-01
          0                 3           1            23   41     2       0.1707730993E-04      23   41    2         0.9428414706E-03      0.1423287079E-01
          0                 4           1            27   37     2       0.1013802612E-04      30   14    2         0.5885083411E-03      0.1028574435E-01
          0                 5           1            29   31     2       0.1218465930E-04      30   34    2         0.4656967118E-03      0.8994982077E-02
          0                 6           1            29   32     1       0.8474685810E-05      29   15    2         0.4231148772E-03      0.8094998406E-02

    ------------------------------------------------
       NWT REQUIRED            6 OUTER ITERATIONS 
       AND A TOTAL OF          6 INNER ITERATIONS.
    ------------------------------------------------

 OUTPUT CONTROL FOR STRESS PERIOD    1   TIME STEP  561
    SAVE HEAD FOR ALL LAYERS
 SOLVING FOR ZETA FOR LAYER     1 ZONE     2

     599 UPPER PART EQS.       589 LOWER PART EQS.    BAND WIDTH + 1 =   27
 STRESS PERIOD=  1 TIMESTEP=561 LAYER=  1 ZONE=  2 ACTIVE CELLS= 1188 NUMBER OF EQUATIONS=    1188
 SOLVING FOR ZETA FOR LAYER     2 ZONE     2

     597 UPPER PART EQS.       588 LOWER PART EQS.    BAND WIDTH + 1 =   34
 STRESS PERIOD=  1 TIMESTEP=561 LAYER=  2 ZONE=  2 ACTIVE CELLS= 1185 NUMBER OF EQUATIONS=    1185
 UBUDSV SAVING "      ZETASRF  1" ON UNIT 55 AT TIME STEP561, STRESS PERIOD    1

 HEAD WILL BE SAVED ON UNIT   51 AT END OF TIME STEP  561, STRESS PERIOD    1
 
 SOLVING FOR HEAD 
                                                   Max.-Head-Change                         Max.-Flux-Residual
  Residual-Control   Outer-Iter.   Inner-Iter.     Column Row Layer    Maximum-Head-Change  Column Row Layer    Maximum-Flux-Residual          L2-NORM 
          0                 1           1            54   47     1       0.3752643526E-03       8   47    1         0.3036245188E+00      0.1907050081E+01
          0                 2           1            37   16     1       0.1572480152E-04      37   16    1         0.4581692203E-02      0.3574836304E-01
          0                 3           1            34   21     1       0.1362490206E-04      40   17    1         0.7110116030E-03      0.1290451983E-01
          0                 4           1            32   27     1       0.8501188902E-05      32   24    2         0.4583635238E-03      0.8647067384E-02

    ------------------------------------------------
       NWT REQUIRED            4 OUTER ITERATIONS 
       AND A TOTAL OF          4 INNER ITERATIONS.
    ------------------------------------------------

 OUTPUT CONTROL FOR STRESS PERIOD    1   TIME STEP  562
    SAVE HEAD FOR ALL LAYERS
 SOLVING FOR ZETA FOR LAYER     1 ZONE     2

     609 UPPER PART EQS.       595 LOWER PART EQS.    BAND WIDTH + 1 =   32
 STRESS PERIOD=  1 TIMESTEP=562 LAYER=  1 ZONE=  2 ACTIVE CELLS= 1204 NUMBER OF EQUATIONS=    1204
 SOLVING FOR ZETA FOR LAYER     2 ZONE     2

     595 UPPER PART EQS.       586 LOWER PART EQS.    BAND WIDTH + 1 =   34
 STRESS PERIOD=  1 TIMESTEP=562 LAYER=  2 ZONE=  2 ACTIVE CELLS= 1181 NUMBER OF EQUATIONS=    1181
 UBUDSV SAVING "      ZETASRF  1" ON UNIT 55 AT TIME STEP562, STRESS PERIOD    1

 HEAD WILL BE SAVED ON UNIT   51 AT END OF TIME STEP  562, STRESS PERIOD    1
 
 SOLVING FOR HEAD 
                                                   Max.-Head-Change                         Max.-Flux-Residual
  Residual-Control   Outer-Iter.   Inner-Iter.     Column Row Layer    Maximum-Head-Change  Column Row Layer    Maximum-Flux-Residual          L2-NORM 
          0                 1           1            47    8     1       0.3746184694E-03      47    8    1         0.3046643046E+00      0.1436812468E+01
          0                 2           1            44   41     1       0.2000195190E-04      32   50    2         0.4852925987E-02      0.3429720063E-01
          0                 3           1            40   25     1       0.1413142110E-04      41   24    1         0.7594618274E-03      0.1317418468E-01
          0                 4           1            36   29     1       0.9593318793E-05      44   41    1         0.5403819872E-03      0.9552482511E-02

    ------------------------------------------------
       NWT REQUIRED            4 OUTER ITERATIONS 
       AND A TOTAL OF          4 INNER ITERATIONS.
    ------------------------------------------------

 OUTPUT CONTROL FOR STRESS PERIOD    1   TIME STEP  563
    SAVE HEAD FOR ALL LAYERS
 SOLVING FOR ZETA FOR LAYER     1 ZONE     2

     592 UPPER PART EQS.       589 LOWER PART EQS.    BAND WIDTH + 1 =   24
 STRESS PERIOD=  1 TIMESTEP=563 LAYER=  1 ZONE=  2 ACTIVE CELLS= 1181 NUMBER OF EQUATIONS=    1181
 SOLVING FOR ZETA FOR LAYER     2 ZONE     2

     591 UPPER PART EQS.       584 LOWER PART EQS.    BAND WIDTH + 1 =   34
 STRESS PERIOD=  1 TIMESTEP=563 LAYER=  2 ZONE=  2 ACTIVE CELLS= 1175 NUMBER OF EQUATIONS=    1175
 UBUDSV SAVING "      ZETASRF  1" ON UNIT 55 AT TIME STEP563, STRESS PERIOD    1

 HEAD WILL BE SAVED ON UNIT   51 AT END OF TIME STEP  563, STRESS PERIOD    1
 
 SOLVING FOR HEAD 
                                                   Max.-Head-Change                         Max.-Flux-Residual
  Residual-Control   Outer-Iter.   Inner-Iter.     Column Row Layer    Maximum-Head-Change  Column Row Layer    Maximum-Flux-Residual          L2-NORM 
          0                 1           1            40   14     1       0.3114495461E-03      29   13    2         0.3222982412E+00      0.2316363801E+01
          0                 2           1            21   13     2      -0.1251877190E-04      32   48    2         0.4754799296E-02      0.3879187869E-01
          0                 3           1            38   30     2       0.1324392318E-04      18   14    2        -0.5228358053E-03      0.1128917054E-01
          0                 4           1            30   31     1       0.8800802304E-05      45   27    2         0.4583932846E-03      0.8145192255E-02

    ------------------------------------------------
       NWT REQUIRED            4 OUTER ITERATIONS 
       AND A TOTAL OF          4 INNER ITERATIONS.
    ------------------------------------------------

 OUTPUT CONTROL FOR STRESS PERIOD    1   TIME STEP  564
    SAVE HEAD FOR ALL LAYERS
 SOLVING FOR ZETA FOR LAYER     1 ZONE     2

     614 UPPER PART EQS.       589 LOWER PART EQS.    BAND WIDTH + 1 =   44
 STRESS PERIOD=  1 TIMESTEP=564 LAYER=  1 ZONE=  2 ACTIVE CELLS= 1203 NUMBER OF EQUATIONS=    1203
 SOLVING FOR ZETA FOR LAYER     2 ZONE     2

     597 UPPER PART EQS.       588 LOWER PART EQS.    BAND WIDTH + 1 =   34
 STRESS PERIOD=  1 TIMESTEP=564 LAYER=  2 ZONE=  2 ACTIVE CELLS= 1185 NUMBER OF EQUATIONS=    1185
 UBUDSV SAVING "      ZETASRF  1" ON UNIT 55 AT TIME STEP564, STRESS PERIOD    1

 HEAD WILL BE SAVED ON UNIT   51 AT END OF TIME STEP  564, STRESS PERIOD    1
 
 SOLVING FOR HEAD 
                                                   Max.-Head-Change                         Max.-Flux-Residual
  Residual-Control   Outer-Iter.   Inner-Iter.     Column Row Layer    Maximum-Head-Change  Column Row Layer    Maximum-Flux-Residual          L2-NORM 
          0                 1           1            49    8     1       0.3159534831E-03      49    8    1         0.3592531770E+00      0.1421474142E+01
          0                 2           1            42   45     1       0.1593098014E-04      37   48    1         0.5857539014E-02      0.3807167017E-01
          0                 3           1            26   42     2       0.1250925588E-04      40   45    1         0.8232572740E-03      0.1271977225E-01
          0                 4           1            31   26     1       0.8831113972E-05      29   39    2         0.4671430372E-03      0.8833408547E-02

    ------------------------------------------------
       NWT REQUIRED            4 OUTER ITERATIONS 
       AND A TOTAL OF          4 INNER ITERATIONS.
    ------------------------------------------------

 OUTPUT CONTROL FOR STRESS PERIOD    1   TIME STEP  565
    SAVE HEAD FOR ALL LAYERS
 SOLVING FOR ZETA FOR LAYER     1 ZONE     2

     602 UPPER PART EQS.       604 LOWER PART EQS.    BAND WIDTH + 1 =   27
 STRESS PERIOD=  1 TIMESTEP=565 LAYER=  1 ZONE=  2 ACTIVE CELLS= 1206 NUMBER OF EQUATIONS=    1206
 SOLVING FOR ZETA FOR LAYER     2 ZONE     2

     595 UPPER PART EQS.       588 LOWER PART EQS.    BAND WIDTH + 1 =   34
 STRESS PERIOD=  1 TIMESTEP=565 LAYER=  2 ZONE=  2 ACTIVE CELLS= 1183 NUMBER OF EQUATIONS=    1183
 UBUDSV SAVING "      ZETASRF  1" ON UNIT 55 AT TIME STEP565, STRESS PERIOD    1

 HEAD WILL BE SAVED ON UNIT   51 AT END OF TIME STEP  565, STRESS PERIOD    1
 
 SOLVING FOR HEAD 
                                                   Max.-Head-Change                         Max.-Flux-Residual
  Residual-Control   Outer-Iter.   Inner-Iter.     Column Row Layer    Maximum-Head-Change  Column Row Layer    Maximum-Flux-Residual          L2-NORM 
          0                 1           1            15   22     1       0.3118955627E-03      37   13    2         0.3040254843E+00      0.1275874504E+01
          0                 2           1            44   41     1       0.2279621258E-04      44   41    1         0.5942477439E-02      0.3663272444E-01
          0                 3           1            40   40     2       0.1613528705E-04      45   40    1         0.9647705405E-03      0.1473869066E-01
          0                 4           1            36   28     2       0.1056075913E-04      44   41    1         0.6654868388E-03      0.1091539665E-01
          0                 5           1            33   31     2       0.1380097140E-04      33   31    2         0.5060473368E-03      0.9603631422E-02
          0                 6           1            32   32     2       0.8504307654E-05      44   41    1         0.4894531713E-03      0.8659435895E-02

    ------------------------------------------------
       NWT REQUIRED            6 OUTER ITERATIONS 
       AND A TOTAL OF          6 INNER ITERATIONS.
    ------------------------------------------------

 OUTPUT CONTROL FOR STRESS PERIOD    1   TIME STEP  566
    SAVE HEAD FOR ALL LAYERS
 SOLVING FOR ZETA FOR LAYER     1 ZONE     2

     608 UPPER PART EQS.       596 LOWER PART EQS.    BAND WIDTH + 1 =   31
 STRESS PERIOD=  1 TIMESTEP=566 LAYER=  1 ZONE=  2 ACTIVE CELLS= 1204 NUMBER OF EQUATIONS=    1204
 SOLVING FOR ZETA FOR LAYER     2 ZONE     2

     597 UPPER PART EQS.       588 LOWER PART EQS.    BAND WIDTH + 1 =   34
 STRESS PERIOD=  1 TIMESTEP=566 LAYER=  2 ZONE=  2 ACTIVE CELLS= 1185 NUMBER OF EQUATIONS=    1185
 UBUDSV SAVING "      ZETASRF  1" ON UNIT 55 AT TIME STEP566, STRESS PERIOD    1

 HEAD WILL BE SAVED ON UNIT   51 AT END OF TIME STEP  566, STRESS PERIOD    1
 
 SOLVING FOR HEAD 
                                                   Max.-Head-Change                         Max.-Flux-Residual
  Residual-Control   Outer-Iter.   Inner-Iter.     Column Row Layer    Maximum-Head-Change  Column Row Layer    Maximum-Flux-Residual          L2-NORM 
          0                 1           1            40   14     1       0.2388062673E-03      40   47    1        -0.2247662623E+00      0.9795343484E+00
          0                 2           1            21   44     1       0.1336285331E-04      43   14    1        -0.3658437375E-02      0.2732315949E-01
          0                 3           1            24   21     1       0.1326816018E-04      26   43    1         0.6242127534E-03      0.1159158249E-01
          0                 4           1            28   29     1       0.8868140569E-05      27   37    2         0.4648819923E-03      0.8783486296E-02

    ------------------------------------------------
       NWT REQUIRED            4 OUTER ITERATIONS 
       AND A TOTAL OF          4 INNER ITERATIONS.
    ------------------------------------------------

 OUTPUT CONTROL FOR STRESS PERIOD    1   TIME STEP  567
    SAVE HEAD FOR ALL LAYERS
 SOLVING FOR ZETA FOR LAYER     1 ZONE     2

     591 UPPER PART EQS.       600 LOWER PART EQS.    BAND WIDTH + 1 =   26
 STRESS PERIOD=  1 TIMESTEP=567 LAYER=  1 ZONE=  2 ACTIVE CELLS= 1191 NUMBER OF EQUATIONS=    1191
 SOLVING FOR ZETA FOR LAYER     2 ZONE     2

     591 UPPER PART EQS.       586 LOWER PART EQS.    BAND WIDTH + 1 =   34
 STRESS PERIOD=  1 TIMESTEP=567 LAYER=  2 ZONE=  2 ACTIVE CELLS= 1177 NUMBER OF EQUATIONS=    1177
 UBUDSV SAVING "      ZETASRF  1" ON UNIT 55 AT TIME STEP567, STRESS PERIOD    1

 HEAD WILL BE SAVED ON UNIT   51 AT END OF TIME STEP  567, STRESS PERIOD    1
 
 SOLVING FOR HEAD 
                                                   Max.-Head-Change                         Max.-Flux-Residual
  Residual-Control   Outer-Iter.   Inner-Iter.     Column Row Layer    Maximum-Head-Change  Column Row Layer    Maximum-Flux-Residual          L2-NORM 
          0                 1           1            48   54     1       0.3341660918E-03      48   54    1         0.3499883024E+00      0.2483293275E+01
          0                 2           1            19   18     1      -0.1335008867E-04      28   48    2         0.4858780194E-02      0.3785686253E-01
          0                 3           1            34   21     1       0.1155219083E-04      34   19    1         0.5659046743E-03      0.1113019431E-01
          0                 4           1            32   29     1       0.8197330339E-05      31   29    2         0.4141607756E-03      0.7436600712E-02

    ------------------------------------------------
       NWT REQUIRED            4 OUTER ITERATIONS 
       AND A TOTAL OF          4 INNER ITERATIONS.
    ------------------------------------------------

 OUTPUT CONTROL FOR STRESS PERIOD    1   TIME STEP  568
    SAVE HEAD FOR ALL LAYERS
 SOLVING FOR ZETA FOR LAYER     1 ZONE     2

     609 UPPER PART EQS.       583 LOWER PART EQS.    BAND WIDTH + 1 =   39
 STRESS PERIOD=  1 TIMESTEP=568 LAYER=  1 ZONE=  2 ACTIVE CELLS= 1192 NUMBER OF EQUATIONS=    1192
 SOLVING FOR ZETA FOR LAYER     2 ZONE     2

     597 UPPER PART EQS.       588 LOWER PART EQS.    BAND WIDTH + 1 =   34
 STRESS PERIOD=  1 TIMESTEP=568 LAYER=  2 ZONE=  2 ACTIVE CELLS= 1185 NUMBER OF EQUATIONS=    1185
 UBUDSV SAVING "      ZETASRF  1" ON UNIT 55 AT TIME STEP568, STRESS PERIOD    1

 HEAD WILL BE SAVED ON UNIT   51 AT END OF TIME STEP  568, STRESS PERIOD    1
 
 SOLVING FOR HEAD 
                                                   Max.-Head-Change                         Max.-Flux-Residual
  Residual-Control   Outer-Iter.   Inner-Iter.     Column Row Layer    Maximum-Head-Change  Column Row Layer    Maximum-Flux-Residual          L2-NORM 
          0                 1           1            48    8     1       0.3345558751E-03      49   54    1         0.3596999875E+00      0.2127646948E+01
          0                 2           1            44   41     1       0.2131738967E-04      27   13    2        -0.5810342105E-02      0.4090613575E-01
          0                 3           1            40   23     1       0.1493822057E-04      41   24    1         0.8218741787E-03      0.1443086811E-01
          0                 4           1            36   27     1       0.8991427008E-05      36   24    2         0.5092116727E-03      0.9833084866E-02

    ------------------------------------------------
       NWT REQUIRED            4 OUTER ITERATIONS 
       AND A TOTAL OF          4 INNER ITERATIONS.
    ------------------------------------------------

 OUTPUT CONTROL FOR STRESS PERIOD    1   TIME STEP  569
    SAVE HEAD FOR ALL LAYERS
 SOLVING FOR ZETA FOR LAYER     1 ZONE     2

     600 UPPER PART EQS.       595 LOWER PART EQS.    BAND WIDTH + 1 =   25
 STRESS PERIOD=  1 TIMESTEP=569 LAYER=  1 ZONE=  2 ACTIVE CELLS= 1195 NUMBER OF EQUATIONS=    1195
 SOLVING FOR ZETA FOR LAYER     2 ZONE     2

     597 UPPER PART EQS.       592 LOWER PART EQS.    BAND WIDTH + 1 =   34
 STRESS PERIOD=  1 TIMESTEP=569 LAYER=  2 ZONE=  2 ACTIVE CELLS= 1189 NUMBER OF EQUATIONS=    1189
 UBUDSV SAVING "      ZETASRF  1" ON UNIT 55 AT TIME STEP569, STRESS PERIOD    1

 HEAD WILL BE SAVED ON UNIT   51 AT END OF TIME STEP  569, STRESS PERIOD    1
 
 SOLVING FOR HEAD 
                                                   Max.-Head-Change                         Max.-Flux-Residual
  Residual-Control   Outer-Iter.   Inner-Iter.     Column Row Layer    Maximum-Head-Change  Column Row Layer    Maximum-Flux-Residual          L2-NORM 
          0                 1           1            49    8     1       0.3161649987E-03      49    8    1         0.3567247955E+00      0.1089097950E+01
          0                 2           1            21   44     1       0.1570415715E-04      37   48    1        -0.4169232685E-02      0.3120790810E-01
          0                 3           1            24   40     2       0.1544009546E-04      23   41    2         0.7537184620E-03      0.1388483334E-01
          0                 4           1            27   33     2       0.1047718356E-04      22   15    1         0.5551221630E-03      0.1039166585E-01
          0                 5           1            29   31     2       0.1320713075E-04      30   30    2         0.4985826876E-03      0.9085219875E-02
          0                 6           1            29   32     1       0.8745948635E-05      29   31    2         0.4283840921E-03      0.8171781812E-02

    ------------------------------------------------
       NWT REQUIRED            6 OUTER ITERATIONS 
       AND A TOTAL OF          6 INNER ITERATIONS.
    ------------------------------------------------

 OUTPUT CONTROL FOR STRESS PERIOD    1   TIME STEP  570
    SAVE HEAD FOR ALL LAYERS
 SOLVING FOR ZETA FOR LAYER     1 ZONE     2

     614 UPPER PART EQS.       591 LOWER PART EQS.    BAND WIDTH + 1 =   40
 STRESS PERIOD=  1 TIMESTEP=570 LAYER=  1 ZONE=  2 ACTIVE CELLS= 1205 NUMBER OF EQUATIONS=    1205
 SOLVING FOR ZETA FOR LAYER     2 ZONE     2

     597 UPPER PART EQS.       592 LOWER PART EQS.    BAND WIDTH + 1 =   34
 STRESS PERIOD=  1 TIMESTEP=570 LAYER=  2 ZONE=  2 ACTIVE CELLS= 1189 NUMBER OF EQUATIONS=    1189
 UBUDSV SAVING "      ZETASRF  1" ON UNIT 55 AT TIME STEP570, STRESS PERIOD    1

 HEAD WILL BE SAVED ON UNIT   51 AT END OF TIME STEP  570, STRESS PERIOD    1
 
 SOLVING FOR HEAD 
                                                   Max.-Head-Change                         Max.-Flux-Residual
  Residual-Control   Outer-Iter.   Inner-Iter.     Column Row Layer    Maximum-Head-Change  Column Row Layer    Maximum-Flux-Residual          L2-NORM 
          0                 1           1             8   47     1       0.3741650049E-03       8   47    1         0.3853521419E+00      0.1678325615E+01
          0                 2           1            45   39     2      -0.1520164333E-04      45   39    2        -0.6177475646E-02      0.3868067385E-01
          0                 3           1            34   21     1       0.1022880174E-04      34   19    1         0.5888359759E-03      0.1020938417E-01
          0                 4           1            31   30     1       0.8407309223E-05      31   25    2         0.3958898826E-03      0.6902800911E-02

    ------------------------------------------------
       NWT REQUIRED            4 OUTER ITERATIONS 
       AND A TOTAL OF          4 INNER ITERATIONS.
    ------------------------------------------------

 OUTPUT CONTROL FOR STRESS PERIOD    1   TIME STEP  571
    SAVE HEAD FOR ALL LAYERS
 SOLVING FOR ZETA FOR LAYER     1 ZONE     2

     594 UPPER PART EQS.       589 LOWER PART EQS.    BAND WIDTH + 1 =   24
 STRESS PERIOD=  1 TIMESTEP=571 LAYER=  1 ZONE=  2 ACTIVE CELLS= 1183 NUMBER OF EQUATIONS=    1183
 SOLVING FOR ZETA FOR LAYER     2 ZONE     2

     595 UPPER PART EQS.       592 LOWER PART EQS.    BAND WIDTH + 1 =   34
 STRESS PERIOD=  1 TIMESTEP=571 LAYER=  2 ZONE=  2 ACTIVE CELLS= 1187 NUMBER OF EQUATIONS=    1187
 UBUDSV SAVING "      ZETASRF  1" ON UNIT 55 AT TIME STEP571, STRESS PERIOD    1

 HEAD WILL BE SAVED ON UNIT   51 AT END OF TIME STEP  571, STRESS PERIOD    1
 
 SOLVING FOR HEAD 
                                                   Max.-Head-Change                         Max.-Flux-Residual
  Residual-Control   Outer-Iter.   Inner-Iter.     Column Row Layer    Maximum-Head-Change  Column Row Layer    Maximum-Flux-Residual          L2-NORM 
          0                 1           1            47   54     1       0.3763231075E-03      47    8    1         0.3852792203E+00      0.2621601225E+01
          0                 2           1            44   23     1       0.2392406724E-04      12    9    1         0.5969129536E-02      0.4521567335E-01
          0                 3           1            40   40     2       0.1681323332E-04      45   40    1         0.1008124722E-02      0.1458282306E-01
          0                 4           1            36   26     2       0.9377724453E-05      36   24    2         0.5400865788E-03      0.9437267619E-02

    ------------------------------------------------
       NWT REQUIRED            4 OUTER ITERATIONS 
       AND A TOTAL OF          4 INNER ITERATIONS.
    ------------------------------------------------

 OUTPUT CONTROL FOR STRESS PERIOD    1   TIME STEP  572
    SAVE HEAD FOR ALL LAYERS
 SOLVING FOR ZETA FOR LAYER     1 ZONE     2

     604 UPPER PART EQS.       594 LOWER PART EQS.    BAND WIDTH + 1 =   29
 STRESS PERIOD=  1 TIMESTEP=572 LAYER=  1 ZONE=  2 ACTIVE CELLS= 1198 NUMBER OF EQUATIONS=    1198
 SOLVING FOR ZETA FOR LAYER     2 ZONE     2

     597 UPPER PART EQS.       590 LOWER PART EQS.    BAND WIDTH + 1 =   34
 STRESS PERIOD=  1 TIMESTEP=572 LAYER=  2 ZONE=  2 ACTIVE CELLS= 1187 NUMBER OF EQUATIONS=    1187
 UBUDSV SAVING "      ZETASRF  1" ON UNIT 55 AT TIME STEP572, STRESS PERIOD    1

 HEAD WILL BE SAVED ON UNIT   51 AT END OF TIME STEP  572, STRESS PERIOD    1
 
 SOLVING FOR HEAD 
                                                   Max.-Head-Change                         Max.-Flux-Residual
  Residual-Control   Outer-Iter.   Inner-Iter.     Column Row Layer    Maximum-Head-Change  Column Row Layer    Maximum-Flux-Residual          L2-NORM 
          0                 1           1            49   26     2       0.2825570614E-03      49   26    2         0.3150527983E+00      0.1548742055E+01
          0                 2           1            24   45     1       0.1723401832E-04      39   13    2        -0.4606552294E-02      0.3213994664E-01
          0                 3           1            26   42     2       0.1476727836E-04      25   43    2         0.8450984926E-03      0.1271016078E-01
          0                 4           1            28   36     2       0.9570709879E-05      27   37    2         0.5087278959E-03      0.9184177035E-02

    ------------------------------------------------
       NWT REQUIRED            4 OUTER ITERATIONS 
       AND A TOTAL OF          4 INNER ITERATIONS.
    ------------------------------------------------

 OUTPUT CONTROL FOR STRESS PERIOD    1   TIME STEP  573
    SAVE HEAD FOR ALL LAYERS
 SOLVING FOR ZETA FOR LAYER     1 ZONE     2

     595 UPPER PART EQS.       593 LOWER PART EQS.    BAND WIDTH + 1 =   23
 STRESS PERIOD=  1 TIMESTEP=573 LAYER=  1 ZONE=  2 ACTIVE CELLS= 1188 NUMBER OF EQUATIONS=    1188
 SOLVING FOR ZETA FOR LAYER     2 ZONE     2

     595 UPPER PART EQS.       596 LOWER PART EQS.    BAND WIDTH + 1 =   34
 STRESS PERIOD=  1 TIMESTEP=573 LAYER=  2 ZONE=  2 ACTIVE CELLS= 1191 NUMBER OF EQUATIONS=    1191
 UBUDSV SAVING "      ZETASRF  1" ON UNIT 55 AT TIME STEP573, STRESS PERIOD    1

 HEAD WILL BE SAVED ON UNIT   51 AT END OF TIME STEP  573, STRESS PERIOD    1
 
 SOLVING FOR HEAD 
                                                   Max.-Head-Change                         Max.-Flux-Residual
  Residual-Control   Outer-Iter.   Inner-Iter.     Column Row Layer    Maximum-Head-Change  Column Row Layer    Maximum-Flux-Residual          L2-NORM 
          0                 1           1            54   14     1       0.3411456618E-03      37   49    2         0.3143052969E+00      0.1990502028E+01
          0                 2           1            37   16     1       0.1510140217E-04      37   16    1         0.4435536370E-02      0.3428767350E-01
          0                 3           1            25   31     2       0.1294976847E-04      35   18    1         0.6051414229E-03      0.1143319372E-01
          0                 4           1            31   30     1       0.8728397436E-05      30   30    2         0.4504069531E-03      0.7981531789E-02

    ------------------------------------------------
       NWT REQUIRED            4 OUTER ITERATIONS 
       AND A TOTAL OF          4 INNER ITERATIONS.
    ------------------------------------------------

 OUTPUT CONTROL FOR STRESS PERIOD    1   TIME STEP  574
    SAVE HEAD FOR ALL LAYERS
 SOLVING FOR ZETA FOR LAYER     1 ZONE     2

     609 UPPER PART EQS.       595 LOWER PART EQS.    BAND WIDTH + 1 =   33
 STRESS PERIOD=  1 TIMESTEP=574 LAYER=  1 ZONE=  2 ACTIVE CELLS= 1204 NUMBER OF EQUATIONS=    1204
 SOLVING FOR ZETA FOR LAYER     2 ZONE     2

     597 UPPER PART EQS.       596 LOWER PART EQS.    BAND WIDTH + 1 =   34
 STRESS PERIOD=  1 TIMESTEP=574 LAYER=  2 ZONE=  2 ACTIVE CELLS= 1193 NUMBER OF EQUATIONS=    1193
 UBUDSV SAVING "      ZETASRF  1" ON UNIT 55 AT TIME STEP574, STRESS PERIOD    1

 HEAD WILL BE SAVED ON UNIT   51 AT END OF TIME STEP  574, STRESS PERIOD    1
 
 SOLVING FOR HEAD 
                                                   Max.-Head-Change                         Max.-Flux-Residual
  Residual-Control   Outer-Iter.   Inner-Iter.     Column Row Layer    Maximum-Head-Change  Column Row Layer    Maximum-Flux-Residual          L2-NORM 
          0                 1           1            48    8     1       0.3394233813E-03      48    8    1         0.2842609470E+00      0.1327641494E+01
          0                 2           1            44   41     1       0.2120925162E-04      19   48    1        -0.4697994590E-02      0.3494930556E-01
          0                 3           1            40   23     1       0.1463778554E-04      40   45    1         0.8181047330E-03      0.1290584297E-01
          0                 4           1            36   27     1       0.9321998774E-05      44   23    1         0.5323848429E-03      0.9097012461E-02

    ------------------------------------------------
       NWT REQUIRED            4 OUTER ITERATIONS 
       AND A TOTAL OF          4 INNER ITERATIONS.
    ------------------------------------------------

 OUTPUT CONTROL FOR STRESS PERIOD    1   TIME STEP  575
    SAVE HEAD FOR ALL LAYERS
 SOLVING FOR ZETA FOR LAYER     1 ZONE     2

     590 UPPER PART EQS.       598 LOWER PART EQS.    BAND WIDTH + 1 =   30
 STRESS PERIOD=  1 TIMESTEP=575 LAYER=  1 ZONE=  2 ACTIVE CELLS= 1188 NUMBER OF EQUATIONS=    1188
 SOLVING FOR ZETA FOR LAYER     2 ZONE     2

     593 UPPER PART EQS.       592 LOWER PART EQS.    BAND WIDTH + 1 =   34
 STRESS PERIOD=  1 TIMESTEP=575 LAYER=  2 ZONE=  2 ACTIVE CELLS= 1185 NUMBER OF EQUATIONS=    1185
 UBUDSV SAVING "      ZETASRF  1" ON UNIT 55 AT TIME STEP575, STRESS PERIOD    1

 HEAD WILL BE SAVED ON UNIT   51 AT END OF TIME STEP  575, STRESS PERIOD    1
 
 SOLVING FOR HEAD 
                                                   Max.-Head-Change                         Max.-Flux-Residual
  Residual-Control   Outer-Iter.   Inner-Iter.     Column Row Layer    Maximum-Head-Change  Column Row Layer    Maximum-Flux-Residual          L2-NORM 
          0                 1           1            40   14     1       0.3006350510E-03       8   12    1         0.3226196362E+00      0.1738667482E+01
          0                 2           1            20   19     1       0.1906679785E-04      19   48    1         0.4470603747E-02      0.3729717900E-01
          0                 3           1            23   41     2       0.1690211628E-04      23   41    2         0.9072518822E-03      0.1497782412E-01
          0                 4           1            27   37     2       0.1049990476E-04      16   24    2         0.6345386677E-03      0.1083218928E-01
          0                 5           1            29   31     2       0.1314282506E-04      29   31    2         0.4920753147E-03      0.9429546852E-02
          0                 6           1            29   31     2       0.8879774734E-05      29   31    2         0.4361993037E-03      0.8492677209E-02

    ------------------------------------------------
       NWT REQUIRED            6 OUTER ITERATIONS 
       AND A TOTAL OF          6 INNER ITERATIONS.
    ------------------------------------------------

 OUTPUT CONTROL FOR STRESS PERIOD    1   TIME STEP  576
    SAVE HEAD FOR ALL LAYERS
 SOLVING FOR ZETA FOR LAYER     1 ZONE     2

     608 UPPER PART EQS.       592 LOWER PART EQS.    BAND WIDTH + 1 =   34
 STRESS PERIOD=  1 TIMESTEP=576 LAYER=  1 ZONE=  2 ACTIVE CELLS= 1200 NUMBER OF EQUATIONS=    1200
 SOLVING FOR ZETA FOR LAYER     2 ZONE     2

     591 UPPER PART EQS.       592 LOWER PART EQS.    BAND WIDTH + 1 =   34
 STRESS PERIOD=  1 TIMESTEP=576 LAYER=  2 ZONE=  2 ACTIVE CELLS= 1183 NUMBER OF EQUATIONS=    1183
 UBUDSV SAVING "      ZETASRF  1" ON UNIT 55 AT TIME STEP576, STRESS PERIOD    1

 HEAD WILL BE SAVED ON UNIT   51 AT END OF TIME STEP  576, STRESS PERIOD    1
 
 SOLVING FOR HEAD 
                                                   Max.-Head-Change                         Max.-Flux-Residual
  Residual-Control   Outer-Iter.   Inner-Iter.     Column Row Layer    Maximum-Head-Change  Column Row Layer    Maximum-Flux-Residual          L2-NORM 
          0                 1           1            14   22     1       0.3024048885E-03      50    8    1         0.3228085638E+00      0.1891624941E+01
          0                 2           1            41   47     2      -0.1435884921E-04      41   47    2        -0.6025031476E-02      0.3891791716E-01
          0                 3           1            33   22     1       0.1009086020E-04      39   49    2        -0.6492502285E-03      0.9633133962E-02
          0                 4           1            31   30     1       0.7646490211E-05      41   24    1         0.3836999673E-03      0.6543288944E-02

    ------------------------------------------------
       NWT REQUIRED            4 OUTER ITERATIONS 
       AND A TOTAL OF          4 INNER ITERATIONS.
    ------------------------------------------------

 OUTPUT CONTROL FOR STRESS PERIOD    1   TIME STEP  577
    SAVE HEAD FOR ALL LAYERS
 SOLVING FOR ZETA FOR LAYER     1 ZONE     2

     602 UPPER PART EQS.       596 LOWER PART EQS.    BAND WIDTH + 1 =   25
 STRESS PERIOD=  1 TIMESTEP=577 LAYER=  1 ZONE=  2 ACTIVE CELLS= 1198 NUMBER OF EQUATIONS=    1198
 SOLVING FOR ZETA FOR LAYER     2 ZONE     2

     597 UPPER PART EQS.       592 LOWER PART EQS.    BAND WIDTH + 1 =   34
 STRESS PERIOD=  1 TIMESTEP=577 LAYER=  2 ZONE=  2 ACTIVE CELLS= 1189 NUMBER OF EQUATIONS=    1189
 UBUDSV SAVING "      ZETASRF  1" ON UNIT 55 AT TIME STEP577, STRESS PERIOD    1

 HEAD WILL BE SAVED ON UNIT   51 AT END OF TIME STEP  577, STRESS PERIOD    1
 
 SOLVING FOR HEAD 
                                                   Max.-Head-Change                         Max.-Flux-Residual
  Residual-Control   Outer-Iter.   Inner-Iter.     Column Row Layer    Maximum-Head-Change  Column Row Layer    Maximum-Flux-Residual          L2-NORM 
          0                 1           1            13   31     1       0.6704680631E-03      13   31    1         0.5526591743E+00      0.1617126772E+01
          0                 2           1            45   32     1      -0.2252709716E-04      45   32    1        -0.1007575961E-01      0.4349803589E-01
          0                 3           1            41   41     2       0.1456608907E-04      45   40    1         0.8841236071E-03      0.1239387770E-01
          0                 4           1            36   24     2       0.7439885651E-05      37   23    2         0.4589016179E-03      0.7418742370E-02

    ------------------------------------------------
       NWT REQUIRED            4 OUTER ITERATIONS 
       AND A TOTAL OF          4 INNER ITERATIONS.
    ------------------------------------------------

 OUTPUT CONTROL FOR STRESS PERIOD    1   TIME STEP  578
    SAVE HEAD FOR ALL LAYERS
 SOLVING FOR ZETA FOR LAYER     1 ZONE     2

     604 UPPER PART EQS.       581 LOWER PART EQS.    BAND WIDTH + 1 =   36
 STRESS PERIOD=  1 TIMESTEP=578 LAYER=  1 ZONE=  2 ACTIVE CELLS= 1185 NUMBER OF EQUATIONS=    1185
 SOLVING FOR ZETA FOR LAYER     2 ZONE     2

     595 UPPER PART EQS.       592 LOWER PART EQS.    BAND WIDTH + 1 =   34
 STRESS PERIOD=  1 TIMESTEP=578 LAYER=  2 ZONE=  2 ACTIVE CELLS= 1187 NUMBER OF EQUATIONS=    1187
 UBUDSV SAVING "      ZETASRF  1" ON UNIT 55 AT TIME STEP578, STRESS PERIOD    1

 HEAD WILL BE SAVED ON UNIT   51 AT END OF TIME STEP  578, STRESS PERIOD    1
 
 SOLVING FOR HEAD 
                                                   Max.-Head-Change                         Max.-Flux-Residual
  Residual-Control   Outer-Iter.   Inner-Iter.     Column Row Layer    Maximum-Head-Change  Column Row Layer    Maximum-Flux-Residual          L2-NORM 
          0                 1           1            31   13     1       0.6659392928E-03      31   13    1         0.5542798859E+00      0.2655043541E+01
          0                 2           1            45   32     1       0.3522312013E-04      45   32    1         0.1114217313E-01      0.5088740212E-01
          0                 3           1            42   32     2       0.1618779395E-04      47   30    1         0.1157720446E-02      0.1328108129E-01
          0                 4           1            24   31     1       0.8919409460E-05      45   32    1         0.7132676142E-03      0.8381237619E-02

    ------------------------------------------------
       NWT REQUIRED            4 OUTER ITERATIONS 
       AND A TOTAL OF          4 INNER ITERATIONS.
    ------------------------------------------------

 OUTPUT CONTROL FOR STRESS PERIOD    1   TIME STEP  579
    SAVE HEAD FOR ALL LAYERS
 SOLVING FOR ZETA FOR LAYER     1 ZONE     2

     598 UPPER PART EQS.       597 LOWER PART EQS.    BAND WIDTH + 1 =   24
 STRESS PERIOD=  1 TIMESTEP=579 LAYER=  1 ZONE=  2 ACTIVE CELLS= 1195 NUMBER OF EQUATIONS=    1195
 SOLVING FOR ZETA FOR LAYER     2 ZONE     2

     597 UPPER PART EQS.       594 LOWER PART EQS.    BAND WIDTH + 1 =   34
 STRESS PERIOD=  1 TIMESTEP=579 LAYER=  2 ZONE=  2 ACTIVE CELLS= 1191 NUMBER OF EQUATIONS=    1191
 UBUDSV SAVING "      ZETASRF  1" ON UNIT 55 AT TIME STEP579, STRESS PERIOD    1

 HEAD WILL BE SAVED ON UNIT   51 AT END OF TIME STEP  579, STRESS PERIOD    1
 
 SOLVING FOR HEAD 
                                                   Max.-Head-Change                         Max.-Flux-Residual
  Residual-Control   Outer-Iter.   Inner-Iter.     Column Row Layer    Maximum-Head-Change  Column Row Layer    Maximum-Flux-Residual          L2-NORM 
          0                 1           1            31   14     1       0.6525809725E-03      31   48    1         0.5303576271E+00      0.1746342164E+01
          0                 2           1            34   47     1       0.3031572984E-04      34   47    1         0.1027265423E-01      0.4222092678E-01
          0                 3           1            33   43     2       0.1685464053E-04      31   46    1         0.1111007643E-02      0.1389282780E-01
          0                 4           1            31   24     1       0.1006213288E-04      34   47    1         0.7120993656E-03      0.9541128575E-02
          0                 5           1            31   30     1       0.1072209381E-04      33   48    1         0.4445233374E-03      0.8172474915E-02
          0                 6           1            31   31     2       0.8456774565E-05      34   47    1         0.4539893168E-03      0.7309716397E-02

    ------------------------------------------------
       NWT REQUIRED            6 OUTER ITERATIONS 
       AND A TOTAL OF          6 INNER ITERATIONS.
    ------------------------------------------------

 OUTPUT CONTROL FOR STRESS PERIOD    1   TIME STEP  580
    SAVE HEAD FOR ALL LAYERS
 SOLVING FOR ZETA FOR LAYER     1 ZONE     2

     593 UPPER PART EQS.       596 LOWER PART EQS.    BAND WIDTH + 1 =   23
 STRESS PERIOD=  1 TIMESTEP=580 LAYER=  1 ZONE=  2 ACTIVE CELLS= 1189 NUMBER OF EQUATIONS=    1189
 SOLVING FOR ZETA FOR LAYER     2 ZONE     2

     597 UPPER PART EQS.       596 LOWER PART EQS.    BAND WIDTH + 1 =   34
 STRESS PERIOD=  1 TIMESTEP=580 LAYER=  2 ZONE=  2 ACTIVE CELLS= 1193 NUMBER OF EQUATIONS=    1193
 UBUDSV SAVING "      ZETASRF  1" ON UNIT 55 AT TIME STEP580, STRESS PERIOD    1

 HEAD WILL BE SAVED ON UNIT   51 AT END OF TIME STEP  580, STRESS PERIOD    1
 
 SOLVING FOR HEAD 
                                                   Max.-Head-Change                         Max.-Flux-Residual
  Residual-Control   Outer-Iter.   Inner-Iter.     Column Row Layer    Maximum-Head-Change  Column Row Layer    Maximum-Flux-Residual          L2-NORM 
          0                 1           1            48   54     1       0.3446522211E-03      48   54    1         0.3660914556E+00      0.2094536544E+01
          0                 2           1            44   41     1       0.2079666511E-04      19   48    1        -0.4503625675E-02      0.3615656413E-01
          0                 3           1            40   23     1       0.1462555290E-04      42   42    2         0.8059370494E-03      0.1317107555E-01
          0                 4           1            36   27     1       0.8475489994E-05      44   23    1         0.5331872222E-03      0.8899087091E-02

    ------------------------------------------------
       NWT REQUIRED            4 OUTER ITERATIONS 
       AND A TOTAL OF          4 INNER ITERATIONS.
    ------------------------------------------------

 OUTPUT CONTROL FOR STRESS PERIOD    1   TIME STEP  581
    SAVE HEAD FOR ALL LAYERS
 SOLVING FOR ZETA FOR LAYER     1 ZONE     2

     593 UPPER PART EQS.       598 LOWER PART EQS.    BAND WIDTH + 1 =   29
 STRESS PERIOD=  1 TIMESTEP=581 LAYER=  1 ZONE=  2 ACTIVE CELLS= 1191 NUMBER OF EQUATIONS=    1191
 SOLVING FOR ZETA FOR LAYER     2 ZONE     2

     597 UPPER PART EQS.       596 LOWER PART EQS.    BAND WIDTH + 1 =   34
 STRESS PERIOD=  1 TIMESTEP=581 LAYER=  2 ZONE=  2 ACTIVE CELLS= 1193 NUMBER OF EQUATIONS=    1193
 UBUDSV SAVING "      ZETASRF  1" ON UNIT 55 AT TIME STEP581, STRESS PERIOD    1

 HEAD WILL BE SAVED ON UNIT   51 AT END OF TIME STEP  581, STRESS PERIOD    1
 
 SOLVING FOR HEAD 
                                                   Max.-Head-Change                         Max.-Flux-Residual
  Residual-Control   Outer-Iter.   Inner-Iter.     Column Row Layer    Maximum-Head-Change  Column Row Layer    Maximum-Flux-Residual          L2-NORM 
          0                 1           1            13   31     1       0.6472054808E-03      48   31    1        -0.5371850701E+00      0.1659890239E+01
          0                 2           1            45   32     1      -0.2244477863E-04      45   32    1        -0.9849872760E-02      0.4139413904E-01
          0                 3           1            23   41     2       0.1590298327E-04      22   19    1         0.9209679581E-03      0.1340074022E-01
          0                 4           1            28   38     2       0.8514964048E-05      45   32    1        -0.5387030258E-03      0.8444405976E-02

    ------------------------------------------------
       NWT REQUIRED            4 OUTER ITERATIONS 
       AND A TOTAL OF          4 INNER ITERATIONS.
    ------------------------------------------------

 OUTPUT CONTROL FOR STRESS PERIOD    1   TIME STEP  582
    SAVE HEAD FOR ALL LAYERS
 SOLVING FOR ZETA FOR LAYER     1 ZONE     2

     606 UPPER PART EQS.       596 LOWER PART EQS.    BAND WIDTH + 1 =   29
 STRESS PERIOD=  1 TIMESTEP=582 LAYER=  1 ZONE=  2 ACTIVE CELLS= 1202 NUMBER OF EQUATIONS=    1202
 SOLVING FOR ZETA FOR LAYER     2 ZONE     2

     595 UPPER PART EQS.       596 LOWER PART EQS.    BAND WIDTH + 1 =   34
 STRESS PERIOD=  1 TIMESTEP=582 LAYER=  2 ZONE=  2 ACTIVE CELLS= 1191 NUMBER OF EQUATIONS=    1191
 UBUDSV SAVING "      ZETASRF  1" ON UNIT 55 AT TIME STEP582, STRESS PERIOD    1

 HEAD WILL BE SAVED ON UNIT   51 AT END OF TIME STEP  582, STRESS PERIOD    1
 
 SOLVING FOR HEAD 
                                                   Max.-Head-Change                         Max.-Flux-Residual
  Residual-Control   Outer-Iter.   Inner-Iter.     Column Row Layer    Maximum-Head-Change  Column Row Layer    Maximum-Flux-Residual          L2-NORM 
          0                 1           1            31   13     1       0.6413922125E-03      48   30    1        -0.5500660067E+00      0.2509877407E+01
          0                 2           1            46   33     1       0.1954035512E-04      16   29    1         0.1026311614E-01      0.4996234270E-01
          0                 3           1            31   31     2       0.5874852717E-05      30   14    2        -0.8176967139E-03      0.7661975971E-02

    ------------------------------------------------
       NWT REQUIRED            3 OUTER ITERATIONS 
       AND A TOTAL OF          3 INNER ITERATIONS.
    ------------------------------------------------

 OUTPUT CONTROL FOR STRESS PERIOD    1   TIME STEP  583
    SAVE HEAD FOR ALL LAYERS
 SOLVING FOR ZETA FOR LAYER     1 ZONE     2

     594 UPPER PART EQS.       589 LOWER PART EQS.    BAND WIDTH + 1 =   26
 STRESS PERIOD=  1 TIMESTEP=583 LAYER=  1 ZONE=  2 ACTIVE CELLS= 1183 NUMBER OF EQUATIONS=    1183
 SOLVING FOR ZETA FOR LAYER     2 ZONE     2

     597 UPPER PART EQS.       592 LOWER PART EQS.    BAND WIDTH + 1 =   34
 STRESS PERIOD=  1 TIMESTEP=583 LAYER=  2 ZONE=  2 ACTIVE CELLS= 1189 NUMBER OF EQUATIONS=    1189
 UBUDSV SAVING "      ZETASRF  1" ON UNIT 55 AT TIME STEP583, STRESS PERIOD    1

 HEAD WILL BE SAVED ON UNIT   51 AT END OF TIME STEP  583, STRESS PERIOD    1
 
 SOLVING FOR HEAD 
                                                   Max.-Head-Change                         Max.-Flux-Residual
  Residual-Control   Outer-Iter.   Inner-Iter.     Column Row Layer    Maximum-Head-Change  Column Row Layer    Maximum-Flux-Residual          L2-NORM 
          0                 1           1            48   32     1       0.7172982525E-03      32   48    1        -0.5500644641E+00      0.3057352336E+01
          0                 2           1            44   33     1       0.4074234431E-04      10   33    1        -0.1021776116E-01      0.6568823686E-01
          0                 3           1            42   32     2       0.2388930730E-04      46   31    1         0.1919500330E-02      0.1798438211E-01
          0                 4           1            38   32     2       0.1063176619E-04      44   33    1         0.1003737670E-02      0.9948266887E-02
          0                 5           1            41   31     2       0.1092997498E-04      46   31    1         0.6607017634E-03      0.7619669813E-02
          0                 6           1            37   31     2       0.7141382352E-05      44   33    1         0.5458812517E-03      0.6480865294E-02

    ------------------------------------------------
       NWT REQUIRED            6 OUTER ITERATIONS 
       AND A TOTAL OF          6 INNER ITERATIONS.
    ------------------------------------------------

 OUTPUT CONTROL FOR STRESS PERIOD    1   TIME STEP  584
    SAVE HEAD FOR ALL LAYERS
 SOLVING FOR ZETA FOR LAYER     1 ZONE     2

     600 UPPER PART EQS.       590 LOWER PART EQS.    BAND WIDTH + 1 =   28
 STRESS PERIOD=  1 TIMESTEP=584 LAYER=  1 ZONE=  2 ACTIVE CELLS= 1190 NUMBER OF EQUATIONS=    1190
 SOLVING FOR ZETA FOR LAYER     2 ZONE     2

     593 UPPER PART EQS.       592 LOWER PART EQS.    BAND WIDTH + 1 =   34
 STRESS PERIOD=  1 TIMESTEP=584 LAYER=  2 ZONE=  2 ACTIVE CELLS= 1185 NUMBER OF EQUATIONS=    1185
 UBUDSV SAVING "      ZETASRF  1" ON UNIT 55 AT TIME STEP584, STRESS PERIOD    1

 HEAD WILL BE SAVED ON UNIT   51 AT END OF TIME STEP  584, STRESS PERIOD    1
 
 SOLVING FOR HEAD 
                                                   Max.-Head-Change                         Max.-Flux-Residual
  Residual-Control   Outer-Iter.   Inner-Iter.     Column Row Layer    Maximum-Head-Change  Column Row Layer    Maximum-Flux-Residual          L2-NORM 
          0                 1           1            30   14     1       0.7185914950E-03      30   48    1         0.5304105787E+00      0.2307411877E+01
          0                 2           1            28   17     1       0.3698004246E-04      27   14    1        -0.1116305327E-01      0.5897004773E-01
          0                 3           1            30   19     1       0.2218325409E-04      31   46    1         0.1590553213E-02      0.1880740293E-01
          0                 4           1            30   40     2       0.1300799260E-04      35   46    1         0.8931074961E-03      0.1253816627E-01
          0                 5           1            31   37     2       0.1315027204E-04      33   48    1         0.6363639077E-03      0.1066258722E-01
          0                 6           1            30   31     1       0.9927020758E-05      29   48    1         0.6791649667E-03      0.9568290389E-02

    ------------------------------------------------
       NWT REQUIRED            6 OUTER ITERATIONS 
       AND A TOTAL OF          6 INNER ITERATIONS.
    ------------------------------------------------

 OUTPUT CONTROL FOR STRESS PERIOD    1   TIME STEP  585
    SAVE HEAD FOR ALL LAYERS
 SOLVING FOR ZETA FOR LAYER     1 ZONE     2

     594 UPPER PART EQS.       587 LOWER PART EQS.    BAND WIDTH + 1 =   23
 STRESS PERIOD=  1 TIMESTEP=585 LAYER=  1 ZONE=  2 ACTIVE CELLS= 1181 NUMBER OF EQUATIONS=    1181
 SOLVING FOR ZETA FOR LAYER     2 ZONE     2

     595 UPPER PART EQS.       594 LOWER PART EQS.    BAND WIDTH + 1 =   34
 STRESS PERIOD=  1 TIMESTEP=585 LAYER=  2 ZONE=  2 ACTIVE CELLS= 1189 NUMBER OF EQUATIONS=    1189
 UBUDSV SAVING "      ZETASRF  1" ON UNIT 55 AT TIME STEP585, STRESS PERIOD    1

 HEAD WILL BE SAVED ON UNIT   51 AT END OF TIME STEP  585, STRESS PERIOD    1
 
 SOLVING FOR HEAD 
                                                   Max.-Head-Change                         Max.-Flux-Residual
  Residual-Control   Outer-Iter.   Inner-Iter.     Column Row Layer    Maximum-Head-Change  Column Row Layer    Maximum-Flux-Residual          L2-NORM 
          0                 1           1            13   31     1       0.6377324349E-03      48   31    1        -0.5292488128E+00      0.2493149289E+01
          0                 2           1            45   32     1      -0.2187625452E-04      45   32    1        -0.9729036912E-02      0.4214913894E-01
          0                 3           1            28   21     1       0.1174030598E-04      47   30    1        -0.7399259551E-03      0.1041854791E-01
          0                 4           1            31   26     1       0.7353574135E-05      31   37    2         0.4032180904E-03      0.6667809456E-02

    ------------------------------------------------
       NWT REQUIRED            4 OUTER ITERATIONS 
       AND A TOTAL OF          4 INNER ITERATIONS.
    ------------------------------------------------

 OUTPUT CONTROL FOR STRESS PERIOD    1   TIME STEP  586
    SAVE HEAD FOR ALL LAYERS
 SOLVING FOR ZETA FOR LAYER     1 ZONE     2

     602 UPPER PART EQS.       590 LOWER PART EQS.    BAND WIDTH + 1 =   30
 STRESS PERIOD=  1 TIMESTEP=586 LAYER=  1 ZONE=  2 ACTIVE CELLS= 1192 NUMBER OF EQUATIONS=    1192
 SOLVING FOR ZETA FOR LAYER     2 ZONE     2

     597 UPPER PART EQS.       592 LOWER PART EQS.    BAND WIDTH + 1 =   34
 STRESS PERIOD=  1 TIMESTEP=586 LAYER=  2 ZONE=  2 ACTIVE CELLS= 1189 NUMBER OF EQUATIONS=    1189
 UBUDSV SAVING "      ZETASRF  1" ON UNIT 55 AT TIME STEP586, STRESS PERIOD    1

 HEAD WILL BE SAVED ON UNIT   51 AT END OF TIME STEP  586, STRESS PERIOD    1
 
 SOLVING FOR HEAD 
                                                   Max.-Head-Change                         Max.-Flux-Residual
  Residual-Control   Outer-Iter.   Inner-Iter.     Column Row Layer    Maximum-Head-Change  Column Row Layer    Maximum-Flux-Residual          L2-NORM 
          0                 1           1            31   13     1       0.6326185066E-03      31   48    1        -0.5287942394E+00      0.2346340849E+01
          0                 2           1            45   32     1       0.3458015188E-04      45   32    1         0.1073682197E-01      0.5186784689E-01
          0                 3           1            42   32     2       0.1697012918E-04      46   31    1         0.1143068547E-02      0.1425209128E-01
          0                 4           1            38   32     2       0.9608587080E-05      45   32    1         0.8170827832E-03      0.8576546377E-02

    ------------------------------------------------
       NWT REQUIRED            4 OUTER ITERATIONS 
       AND A TOTAL OF          4 INNER ITERATIONS.
    ------------------------------------------------

 OUTPUT CONTROL FOR STRESS PERIOD    1   TIME STEP  587
    SAVE HEAD FOR ALL LAYERS
 SOLVING FOR ZETA FOR LAYER     1 ZONE     2

     591 UPPER PART EQS.       596 LOWER PART EQS.    BAND WIDTH + 1 =   26
 STRESS PERIOD=  1 TIMESTEP=587 LAYER=  1 ZONE=  2 ACTIVE CELLS= 1187 NUMBER OF EQUATIONS=    1187
 SOLVING FOR ZETA FOR LAYER     2 ZONE     2

     597 UPPER PART EQS.       596 LOWER PART EQS.    BAND WIDTH + 1 =   34
 STRESS PERIOD=  1 TIMESTEP=587 LAYER=  2 ZONE=  2 ACTIVE CELLS= 1193 NUMBER OF EQUATIONS=    1193
 UBUDSV SAVING "      ZETASRF  1" ON UNIT 55 AT TIME STEP587, STRESS PERIOD    1

 HEAD WILL BE SAVED ON UNIT   51 AT END OF TIME STEP  587, STRESS PERIOD    1
 
 SOLVING FOR HEAD 
                                                   Max.-Head-Change                         Max.-Flux-Residual
  Residual-Control   Outer-Iter.   Inner-Iter.     Column Row Layer    Maximum-Head-Change  Column Row Layer    Maximum-Flux-Residual          L2-NORM 
          0                 1           1            13   32     1       0.7012049495E-03      49   32    1         0.5444636274E+00      0.2474965974E+01
          0                 2           1            29   16     1       0.2799096379E-04      10   33    1         0.1058250150E-01      0.6070440991E-01
          0                 3           1            26   19     1       0.1797900017E-04      46   31    1        -0.1294997684E-02      0.1652822352E-01
          0                 4           1            28   40     2       0.9638566648E-05      50   31    1        -0.6959652996E-03      0.8918186825E-02

    ------------------------------------------------
       NWT REQUIRED            4 OUTER ITERATIONS 
       AND A TOTAL OF          4 INNER ITERATIONS.
    ------------------------------------------------

 OUTPUT CONTROL FOR STRESS PERIOD    1   TIME STEP  588
    SAVE HEAD FOR ALL LAYERS
 SOLVING FOR ZETA FOR LAYER     1 ZONE     2

     599 UPPER PART EQS.       591 LOWER PART EQS.    BAND WIDTH + 1 =   24
 STRESS PERIOD=  1 TIMESTEP=588 LAYER=  1 ZONE=  2 ACTIVE CELLS= 1190 NUMBER OF EQUATIONS=    1190
 SOLVING FOR ZETA FOR LAYER     2 ZONE     2

     597 UPPER PART EQS.       596 LOWER PART EQS.    BAND WIDTH + 1 =   34
 STRESS PERIOD=  1 TIMESTEP=588 LAYER=  2 ZONE=  2 ACTIVE CELLS= 1193 NUMBER OF EQUATIONS=    1193
 UBUDSV SAVING "      ZETASRF  1" ON UNIT 55 AT TIME STEP588, STRESS PERIOD    1

 HEAD WILL BE SAVED ON UNIT   51 AT END OF TIME STEP  588, STRESS PERIOD    1
 
 SOLVING FOR HEAD 
                                                   Max.-Head-Change                         Max.-Flux-Residual
  Residual-Control   Outer-Iter.   Inner-Iter.     Column Row Layer    Maximum-Head-Change  Column Row Layer    Maximum-Flux-Residual          L2-NORM 
          0                 1           1            48   32     1       0.7000473433E-03      32   49    1         0.5444482672E+00      0.2759669120E+01
          0                 2           1            44   33     1       0.3625911133E-04      29   14    1         0.1026920586E-01      0.6814400240E-01
          0                 3           1            42   32     2       0.1870306887E-04      46   31    1         0.1713104951E-02      0.1559370854E-01
          0                 4           1            38   32     2       0.9292923719E-05      44   33    1         0.8034440841E-03      0.8240125298E-02

    ------------------------------------------------
       NWT REQUIRED            4 OUTER ITERATIONS 
       AND A TOTAL OF          4 INNER ITERATIONS.
    ------------------------------------------------

 OUTPUT CONTROL FOR STRESS PERIOD    1   TIME STEP  589
    SAVE HEAD FOR ALL LAYERS
 SOLVING FOR ZETA FOR LAYER     1 ZONE     2

     596 UPPER PART EQS.       595 LOWER PART EQS.    BAND WIDTH + 1 =   25
 STRESS PERIOD=  1 TIMESTEP=589 LAYER=  1 ZONE=  2 ACTIVE CELLS= 1191 NUMBER OF EQUATIONS=    1191
 SOLVING FOR ZETA FOR LAYER     2 ZONE     2

     597 UPPER PART EQS.       596 LOWER PART EQS.    BAND WIDTH + 1 =   34
 STRESS PERIOD=  1 TIMESTEP=589 LAYER=  2 ZONE=  2 ACTIVE CELLS= 1193 NUMBER OF EQUATIONS=    1193
 UBUDSV SAVING "      ZETASRF  1" ON UNIT 55 AT TIME STEP589, STRESS PERIOD    1

 HEAD WILL BE SAVED ON UNIT   51 AT END OF TIME STEP  589, STRESS PERIOD    1
 
 SOLVING FOR HEAD 
                                                   Max.-Head-Change                         Max.-Flux-Residual
  Residual-Control   Outer-Iter.   Inner-Iter.     Column Row Layer    Maximum-Head-Change  Column Row Layer    Maximum-Flux-Residual          L2-NORM 
          0                 1           1            30   14     1       0.6987156669E-03      49   31    1         0.5280641669E+00      0.2141031758E+01
          0                 2           1            28   17     1       0.3286059723E-04      29   14    1        -0.1049540219E-01      0.6199893146E-01
          0                 3           1            33   43     2       0.1963562156E-04      31   46    1         0.1458997514E-02      0.1875579751E-01
          0                 4           1            32   40     2       0.1182281172E-04      35   46    1         0.8905607229E-03      0.1163557130E-01
          0                 5           1            32   38     2       0.1178344647E-04      31   47    2         0.5258124541E-03      0.9538797713E-02
          0                 6           1            32   32     2       0.8872530844E-05      29   48    1         0.5401080833E-03      0.8421168171E-02

    ------------------------------------------------
       NWT REQUIRED            6 OUTER ITERATIONS 
       AND A TOTAL OF          6 INNER ITERATIONS.
    ------------------------------------------------

 OUTPUT CONTROL FOR STRESS PERIOD    1   TIME STEP  590
    SAVE HEAD FOR ALL LAYERS
 SOLVING FOR ZETA FOR LAYER     1 ZONE     2

     596 UPPER PART EQS.       596 LOWER PART EQS.    BAND WIDTH + 1 =   22
 STRESS PERIOD=  1 TIMESTEP=590 LAYER=  1 ZONE=  2 ACTIVE CELLS= 1192 NUMBER OF EQUATIONS=    1192
 SOLVING FOR ZETA FOR LAYER     2 ZONE     2

     597 UPPER PART EQS.       596 LOWER PART EQS.    BAND WIDTH + 1 =   34
 STRESS PERIOD=  1 TIMESTEP=590 LAYER=  2 ZONE=  2 ACTIVE CELLS= 1193 NUMBER OF EQUATIONS=    1193
 UBUDSV SAVING "      ZETASRF  1" ON UNIT 55 AT TIME STEP590, STRESS PERIOD    1

 HEAD WILL BE SAVED ON UNIT   51 AT END OF TIME STEP  590, STRESS PERIOD    1
 
 SOLVING FOR HEAD 
                                                   Max.-Head-Change                         Max.-Flux-Residual
  Residual-Control   Outer-Iter.   Inner-Iter.     Column Row Layer    Maximum-Head-Change  Column Row Layer    Maximum-Flux-Residual          L2-NORM 
          0                 1           1            31   13     1       0.6265227708E-03      31   13    1         0.5277626489E+00      0.2020437647E+01
          0                 2           1            45   32     1       0.3378567542E-04      45   32    1         0.1065629445E-01      0.4367606228E-01
          0                 3           1            42   32     2       0.1771580734E-04      47   30    1         0.1155709424E-02      0.1316703465E-01
          0                 4           1            24   31     1       0.9371597926E-05      45   32    1         0.7654208004E-03      0.9032174504E-02

    ------------------------------------------------
       NWT REQUIRED            4 OUTER ITERATIONS 
       AND A TOTAL OF          4 INNER ITERATIONS.
    ------------------------------------------------

 OUTPUT CONTROL FOR STRESS PERIOD    1   TIME STEP  591
    SAVE HEAD FOR ALL LAYERS
 SOLVING FOR ZETA FOR LAYER     1 ZONE     2

     598 UPPER PART EQS.       596 LOWER PART EQS.    BAND WIDTH + 1 =   22
 STRESS PERIOD=  1 TIMESTEP=591 LAYER=  1 ZONE=  2 ACTIVE CELLS= 1194 NUMBER OF EQUATIONS=    1194
 SOLVING FOR ZETA FOR LAYER     2 ZONE     2

     597 UPPER PART EQS.       596 LOWER PART EQS.    BAND WIDTH + 1 =   34
 STRESS PERIOD=  1 TIMESTEP=591 LAYER=  2 ZONE=  2 ACTIVE CELLS= 1193 NUMBER OF EQUATIONS=    1193
 UBUDSV SAVING "      ZETASRF  1" ON UNIT 55 AT TIME STEP591, STRESS PERIOD    1

 HEAD WILL BE SAVED ON UNIT   51 AT END OF TIME STEP  591, STRESS PERIOD    1
 
 SOLVING FOR HEAD 
                                                   Max.-Head-Change                         Max.-Flux-Residual
  Residual-Control   Outer-Iter.   Inner-Iter.     Column Row Layer    Maximum-Head-Change  Column Row Layer    Maximum-Flux-Residual          L2-NORM 
          0                 1           1            48   32     1      -0.6821180926E-03      49   32    1         0.5281080830E+00      0.2175482217E+01
          0                 2           1            29   16     1       0.2684951156E-04      10   33    1         0.1029946015E-01      0.5597330151E-01
          0                 3           1            31   43     2       0.1639203071E-04      31   46    1         0.1190108856E-02      0.1424223198E-01
          0                 4           1            30   40     2       0.8793732593E-05      50   31    1        -0.5876856960E-03      0.7650017946E-02

    ------------------------------------------------
       NWT REQUIRED            4 OUTER ITERATIONS 
       AND A TOTAL OF          4 INNER ITERATIONS.
    ------------------------------------------------

 OUTPUT CONTROL FOR STRESS PERIOD    1   TIME STEP  592
    SAVE HEAD FOR ALL LAYERS
 SOLVING FOR ZETA FOR LAYER     1 ZONE     2

     600 UPPER PART EQS.       592 LOWER PART EQS.    BAND WIDTH + 1 =   26
 STRESS PERIOD=  1 TIMESTEP=592 LAYER=  1 ZONE=  2 ACTIVE CELLS= 1192 NUMBER OF EQUATIONS=    1192
 SOLVING FOR ZETA FOR LAYER     2 ZONE     2

     595 UPPER PART EQS.       592 LOWER PART EQS.    BAND WIDTH + 1 =   34
 STRESS PERIOD=  1 TIMESTEP=592 LAYER=  2 ZONE=  2 ACTIVE CELLS= 1187 NUMBER OF EQUATIONS=    1187
 UBUDSV SAVING "      ZETASRF  1" ON UNIT 55 AT TIME STEP592, STRESS PERIOD    1

 HEAD WILL BE SAVED ON UNIT   51 AT END OF TIME STEP  592, STRESS PERIOD    1
 
 SOLVING FOR HEAD 
                                                   Max.-Head-Change                         Max.-Flux-Residual
  Residual-Control   Outer-Iter.   Inner-Iter.     Column Row Layer    Maximum-Head-Change  Column Row Layer    Maximum-Flux-Residual          L2-NORM 
          0                 1           1            48   32     1       0.6892135078E-03      32   49    1         0.5278785148E+00      0.2514402459E+01
          0                 2           1            44   33     1       0.3922384974E-04      29   14    1         0.1014243649E-01      0.6903871143E-01
          0                 3           1            42   32     2       0.2256197814E-04      46   31    1         0.1991722779E-02      0.1860828728E-01
          0                 4           1            43   32     1       0.1136393682E-04      44   33    1         0.1046918711E-02      0.1011335177E-01
          0                 5           1            41   31     2       0.1044545384E-04      46   31    1         0.7454963060E-03      0.7475910806E-02
          0                 6           1            38   32     2       0.7558027667E-05      44   33    1         0.5467894620E-03      0.6145251045E-02

    ------------------------------------------------
       NWT REQUIRED            6 OUTER ITERATIONS 
       AND A TOTAL OF          6 INNER ITERATIONS.
    ------------------------------------------------

 OUTPUT CONTROL FOR STRESS PERIOD    1   TIME STEP  593
    SAVE HEAD FOR ALL LAYERS
 SOLVING FOR ZETA FOR LAYER     1 ZONE     2

     597 UPPER PART EQS.       588 LOWER PART EQS.    BAND WIDTH + 1 =   26
 STRESS PERIOD=  1 TIMESTEP=593 LAYER=  1 ZONE=  2 ACTIVE CELLS= 1185 NUMBER OF EQUATIONS=    1185
 SOLVING FOR ZETA FOR LAYER     2 ZONE     2

     593 UPPER PART EQS.       596 LOWER PART EQS.    BAND WIDTH + 1 =   34
 STRESS PERIOD=  1 TIMESTEP=593 LAYER=  2 ZONE=  2 ACTIVE CELLS= 1189 NUMBER OF EQUATIONS=    1189
 UBUDSV SAVING "      ZETASRF  1" ON UNIT 55 AT TIME STEP593, STRESS PERIOD    1

 HEAD WILL BE SAVED ON UNIT   51 AT END OF TIME STEP  593, STRESS PERIOD    1
 
 SOLVING FOR HEAD 
                                                   Max.-Head-Change                         Max.-Flux-Residual
  Residual-Control   Outer-Iter.   Inner-Iter.     Column Row Layer    Maximum-Head-Change  Column Row Layer    Maximum-Flux-Residual          L2-NORM 
          0                 1           1            30   14     1       0.6894327736E-03      13   31    1         0.5235669611E+00      0.2621490391E+01
          0                 2           1            28   17     1       0.3826295609E-04      29   14    1        -0.1054006324E-01      0.6450556136E-01
          0                 3           1            29   43     2       0.2319575788E-04      28   44    2         0.1534670663E-02      0.1938103870E-01
          0                 4           1            28   40     2       0.1272277943E-04      35   46    1         0.8455776084E-03      0.1164447726E-01
          0                 5           1            29   40     1       0.1173443445E-04      31   47    2         0.5404397472E-03      0.9419378338E-02
          0                 6           1            29   35     2       0.8721017074E-05      29   48    1         0.5743816847E-03      0.8238211282E-02

    ------------------------------------------------
       NWT REQUIRED            6 OUTER ITERATIONS 
       AND A TOTAL OF          6 INNER ITERATIONS.
    ------------------------------------------------

 OUTPUT CONTROL FOR STRESS PERIOD    1   TIME STEP  594
    SAVE HEAD FOR ALL LAYERS
 SOLVING FOR ZETA FOR LAYER     1 ZONE     2

     601 UPPER PART EQS.       595 LOWER PART EQS.    BAND WIDTH + 1 =   24
 STRESS PERIOD=  1 TIMESTEP=594 LAYER=  1 ZONE=  2 ACTIVE CELLS= 1196 NUMBER OF EQUATIONS=    1196
 SOLVING FOR ZETA FOR LAYER     2 ZONE     2

     597 UPPER PART EQS.       592 LOWER PART EQS.    BAND WIDTH + 1 =   34
 STRESS PERIOD=  1 TIMESTEP=594 LAYER=  2 ZONE=  2 ACTIVE CELLS= 1189 NUMBER OF EQUATIONS=    1189
 UBUDSV SAVING "      ZETASRF  1" ON UNIT 55 AT TIME STEP594, STRESS PERIOD    1

 HEAD WILL BE SAVED ON UNIT   51 AT END OF TIME STEP  594, STRESS PERIOD    1
 
 SOLVING FOR HEAD 
                                                   Max.-Head-Change                         Max.-Flux-Residual
  Residual-Control   Outer-Iter.   Inner-Iter.     Column Row Layer    Maximum-Head-Change  Column Row Layer    Maximum-Flux-Residual          L2-NORM 
          0                 1           1            31   13     1       0.6198194211E-03      31   49    1         0.5233149907E+00      0.2083041565E+01
          0                 2           1            45   32     1       0.3260319615E-04      45   32    1         0.1050382657E-01      0.4838593864E-01
          0                 3           1            42   32     2       0.1503397272E-04      47   30    1         0.1085974936E-02      0.1123667638E-01
          0                 4           1            38   32     2       0.9174185581E-05      45   32    1         0.5557229952E-03      0.7271104634E-02

    ------------------------------------------------
       NWT REQUIRED            4 OUTER ITERATIONS 
       AND A TOTAL OF          4 INNER ITERATIONS.
    ------------------------------------------------

 OUTPUT CONTROL FOR STRESS PERIOD    1   TIME STEP  595
    SAVE HEAD FOR ALL LAYERS
 SOLVING FOR ZETA FOR LAYER     1 ZONE     2

     590 UPPER PART EQS.       593 LOWER PART EQS.    BAND WIDTH + 1 =   23
 STRESS PERIOD=  1 TIMESTEP=595 LAYER=  1 ZONE=  2 ACTIVE CELLS= 1183 NUMBER OF EQUATIONS=    1183
 SOLVING FOR ZETA FOR LAYER     2 ZONE     2

     597 UPPER PART EQS.       594 LOWER PART EQS.    BAND WIDTH + 1 =   34
 STRESS PERIOD=  1 TIMESTEP=595 LAYER=  2 ZONE=  2 ACTIVE CELLS= 1191 NUMBER OF EQUATIONS=    1191
 UBUDSV SAVING "      ZETASRF  1" ON UNIT 55 AT TIME STEP595, STRESS PERIOD    1

 HEAD WILL BE SAVED ON UNIT   51 AT END OF TIME STEP  595, STRESS PERIOD    1
 
 SOLVING FOR HEAD 
                                                   Max.-Head-Change                         Max.-Flux-Residual
  Residual-Control   Outer-Iter.   Inner-Iter.     Column Row Layer    Maximum-Head-Change  Column Row Layer    Maximum-Flux-Residual          L2-NORM 
          0                 1           1            48   32     1      -0.6749952276E-03      49   32    1         0.5238524024E+00      0.2829470593E+01
          0                 2           1            44   33     1      -0.2507300446E-04      10   33    1         0.1015166983E-01      0.5950073292E-01
          0                 3           1            33   43     2       0.1471976821E-04      46   31    1        -0.1145938167E-02      0.1535015911E-01
          0                 4           1            32   40     2       0.8405693430E-05      50   31    1        -0.5968239265E-03      0.8271252778E-02

    ------------------------------------------------
       NWT REQUIRED            4 OUTER ITERATIONS 
       AND A TOTAL OF          4 INNER ITERATIONS.
    ------------------------------------------------

 OUTPUT CONTROL FOR STRESS PERIOD    1   TIME STEP  596
    SAVE HEAD FOR ALL LAYERS
 SOLVING FOR ZETA FOR LAYER     1 ZONE     2

     592 UPPER PART EQS.       598 LOWER PART EQS.    BAND WIDTH + 1 =   30
 STRESS PERIOD=  1 TIMESTEP=596 LAYER=  1 ZONE=  2 ACTIVE CELLS= 1190 NUMBER OF EQUATIONS=    1190
 SOLVING FOR ZETA FOR LAYER     2 ZONE     2

     595 UPPER PART EQS.       596 LOWER PART EQS.    BAND WIDTH + 1 =   34
 STRESS PERIOD=  1 TIMESTEP=596 LAYER=  2 ZONE=  2 ACTIVE CELLS= 1191 NUMBER OF EQUATIONS=    1191
 UBUDSV SAVING "      ZETASRF  1" ON UNIT 55 AT TIME STEP596, STRESS PERIOD    1

 HEAD WILL BE SAVED ON UNIT   51 AT END OF TIME STEP  596, STRESS PERIOD    1
 
 SOLVING FOR HEAD 
                                                   Max.-Head-Change                         Max.-Flux-Residual
  Residual-Control   Outer-Iter.   Inner-Iter.     Column Row Layer    Maximum-Head-Change  Column Row Layer    Maximum-Flux-Residual          L2-NORM 
          0                 1           1            48   32     1       0.6817838925E-03      32   49    1         0.5236481737E+00      0.2458549907E+01
          0                 2           1            44   33     1       0.3851599083E-04      27   14    1         0.1063001211E-01      0.6462501038E-01
          0                 3           1            42   32     2       0.2171761519E-04      46   31    1         0.1938456870E-02      0.1703868755E-01
          0                 4           1            43   32     1       0.1039442318E-04      44   33    1         0.9644541522E-03      0.9613126208E-02
          0                 5           1            22   30     2       0.8991476798E-05      46   31    1         0.6951236718E-03      0.7237283762E-02

    ------------------------------------------------
       NWT REQUIRED            5 OUTER ITERATIONS 
       AND A TOTAL OF          5 INNER ITERATIONS.
    ------------------------------------------------

 OUTPUT CONTROL FOR STRESS PERIOD    1   TIME STEP  597
    SAVE HEAD FOR ALL LAYERS
 SOLVING FOR ZETA FOR LAYER     1 ZONE     2

     600 UPPER PART EQS.       598 LOWER PART EQS.    BAND WIDTH + 1 =   23
 STRESS PERIOD=  1 TIMESTEP=597 LAYER=  1 ZONE=  2 ACTIVE CELLS= 1198 NUMBER OF EQUATIONS=    1198
 SOLVING FOR ZETA FOR LAYER     2 ZONE     2

     597 UPPER PART EQS.       592 LOWER PART EQS.    BAND WIDTH + 1 =   34
 STRESS PERIOD=  1 TIMESTEP=597 LAYER=  2 ZONE=  2 ACTIVE CELLS= 1189 NUMBER OF EQUATIONS=    1189
 UBUDSV SAVING "      ZETASRF  1" ON UNIT 55 AT TIME STEP597, STRESS PERIOD    1

 HEAD WILL BE SAVED ON UNIT   51 AT END OF TIME STEP  597, STRESS PERIOD    1
 
 SOLVING FOR HEAD 
                                                   Max.-Head-Change                         Max.-Flux-Residual
  Residual-Control   Outer-Iter.   Inner-Iter.     Column Row Layer    Maximum-Head-Change  Column Row Layer    Maximum-Flux-Residual          L2-NORM 
          0                 1           1            30   14     1       0.6810612653E-03      13   31    1         0.5196732988E+00      0.2224347777E+01
          0                 2           1            28   17     1       0.3588066900E-04      29   14    1        -0.1011949441E-01      0.5900156396E-01
          0                 3           1            31   18     1       0.2119603476E-04      31   46    1         0.1524597570E-02      0.1729388284E-01
          0                 4           1            30   40     2       0.1118682855E-04      35   46    1         0.8448971470E-03      0.9979258813E-02
          0                 5           1            30   38     2       0.9668996767E-05      31   46    1         0.4922297526E-03      0.7706307225E-02

    ------------------------------------------------
       NWT REQUIRED            5 OUTER ITERATIONS 
       AND A TOTAL OF          5 INNER ITERATIONS.
    ------------------------------------------------

 OUTPUT CONTROL FOR STRESS PERIOD    1   TIME STEP  598
    SAVE HEAD FOR ALL LAYERS
 SOLVING FOR ZETA FOR LAYER     1 ZONE     2

     602 UPPER PART EQS.       594 LOWER PART EQS.    BAND WIDTH + 1 =   27
 STRESS PERIOD=  1 TIMESTEP=598 LAYER=  1 ZONE=  2 ACTIVE CELLS= 1196 NUMBER OF EQUATIONS=    1196
 SOLVING FOR ZETA FOR LAYER     2 ZONE     2

     597 UPPER PART EQS.       596 LOWER PART EQS.    BAND WIDTH + 1 =   34
 STRESS PERIOD=  1 TIMESTEP=598 LAYER=  2 ZONE=  2 ACTIVE CELLS= 1193 NUMBER OF EQUATIONS=    1193
 UBUDSV SAVING "      ZETASRF  1" ON UNIT 55 AT TIME STEP598, STRESS PERIOD    1

 HEAD WILL BE SAVED ON UNIT   51 AT END OF TIME STEP  598, STRESS PERIOD    1
 
 SOLVING FOR HEAD 
                                                   Max.-Head-Change                         Max.-Flux-Residual
  Residual-Control   Outer-Iter.   Inner-Iter.     Column Row Layer    Maximum-Head-Change  Column Row Layer    Maximum-Flux-Residual          L2-NORM 
          0                 1           1            33   13     1       0.7265228473E-03      13   29    1         0.5555185315E+00      0.2712665877E+01
          0                 2           1            29   16     1      -0.4595735286E-04      26   15    1        -0.1180373310E-01      0.6767831085E-01
          0                 3           1            30   16     2      -0.2054489009E-04      33   16    1        -0.1939593005E-02      0.1482653005E-01
          0                 4           1            30   17     1      -0.7976043292E-05      26   15    1        -0.8898479971E-03      0.6474121360E-02

    ------------------------------------------------
       NWT REQUIRED            4 OUTER ITERATIONS 
       AND A TOTAL OF          4 INNER ITERATIONS.
    ------------------------------------------------

 OUTPUT CONTROL FOR STRESS PERIOD    1   TIME STEP  599
    SAVE HEAD FOR ALL LAYERS
 SOLVING FOR ZETA FOR LAYER     1 ZONE     2

     600 UPPER PART EQS.       579 LOWER PART EQS.    BAND WIDTH + 1 =   35
 STRESS PERIOD=  1 TIMESTEP=599 LAYER=  1 ZONE=  2 ACTIVE CELLS= 1179 NUMBER OF EQUATIONS=    1179
 SOLVING FOR ZETA FOR LAYER     2 ZONE     2

     597 UPPER PART EQS.       596 LOWER PART EQS.    BAND WIDTH + 1 =   34
 STRESS PERIOD=  1 TIMESTEP=599 LAYER=  2 ZONE=  2 ACTIVE CELLS= 1193 NUMBER OF EQUATIONS=    1193
 UBUDSV SAVING "      ZETASRF  1" ON UNIT 55 AT TIME STEP599, STRESS PERIOD    1

 HEAD WILL BE SAVED ON UNIT   51 AT END OF TIME STEP  599, STRESS PERIOD    1
 
 SOLVING FOR HEAD 
                                                   Max.-Head-Change                         Max.-Flux-Residual
  Residual-Control   Outer-Iter.   Inner-Iter.     Column Row Layer    Maximum-Head-Change  Column Row Layer    Maximum-Flux-Residual          L2-NORM 
          0                 1           1            29   14     1       0.7037840888E-03      29   49    1         0.5556034269E+00      0.3194585170E+01
          0                 2           1            29   16     1       0.5177310086E-04      30   49    1         0.1175515455E-01      0.7117653357E-01
          0                 3           1            29   18     1       0.2615272839E-04      33   16    1         0.1934787953E-02      0.1859600106E-01
          0                 4           1            29   20     1       0.1256465382E-04      26   15    1         0.1053629500E-02      0.1023174350E-01
          0                 5           1            29   22     1       0.1194310128E-04      33   16    1         0.5329399786E-03      0.8053619193E-02
          0                 6           1            29   24     1       0.7813985746E-05      26   15    1         0.5971257504E-03      0.6970391552E-02

    ------------------------------------------------
       NWT REQUIRED            6 OUTER ITERATIONS 
       AND A TOTAL OF          6 INNER ITERATIONS.
    ------------------------------------------------

 OUTPUT CONTROL FOR STRESS PERIOD    1   TIME STEP  600
    SAVE HEAD FOR ALL LAYERS
 SOLVING FOR ZETA FOR LAYER     1 ZONE     2

     598 UPPER PART EQS.       596 LOWER PART EQS.    BAND WIDTH + 1 =   23
 STRESS PERIOD=  1 TIMESTEP=600 LAYER=  1 ZONE=  2 ACTIVE CELLS= 1194 NUMBER OF EQUATIONS=    1194
 SOLVING FOR ZETA FOR LAYER     2 ZONE     2

     597 UPPER PART EQS.       596 LOWER PART EQS.    BAND WIDTH + 1 =   34
 STRESS PERIOD=  1 TIMESTEP=600 LAYER=  2 ZONE=  2 ACTIVE CELLS= 1193 NUMBER OF EQUATIONS=    1193
 UBUDSV SAVING "      ZETASRF  1" ON UNIT 55 AT TIME STEP600, STRESS PERIOD    1

 HEAD WILL BE SAVED ON UNIT   51 AT END OF TIME STEP  600, STRESS PERIOD    1
 
 SOLVING FOR HEAD 
                                                   Max.-Head-Change                         Max.-Flux-Residual
  Residual-Control   Outer-Iter.   Inner-Iter.     Column Row Layer    Maximum-Head-Change  Column Row Layer    Maximum-Flux-Residual          L2-NORM 
          0                 1           1            48   32     1       0.6758586842E-03      29   48    1         0.5294034712E+00      0.2658342513E+01
          0                 2           1            44   33     1       0.3595642397E-04      27   50    1         0.1013385853E-01      0.6344814473E-01
          0                 3           1            42   32     2       0.2019457732E-04      46   31    1         0.1687537116E-02      0.1498036859E-01
          0                 4           1            38   32     2       0.9752814939E-05      44   33    1         0.8158435847E-03      0.8468127802E-02

    ------------------------------------------------
       NWT REQUIRED            4 OUTER ITERATIONS 
       AND A TOTAL OF          4 INNER ITERATIONS.
    ------------------------------------------------

 OUTPUT CONTROL FOR STRESS PERIOD    1   TIME STEP  601
    SAVE HEAD FOR ALL LAYERS
 SOLVING FOR ZETA FOR LAYER     1 ZONE     2

     592 UPPER PART EQS.       595 LOWER PART EQS.    BAND WIDTH + 1 =   27
 STRESS PERIOD=  1 TIMESTEP=601 LAYER=  1 ZONE=  2 ACTIVE CELLS= 1187 NUMBER OF EQUATIONS=    1187
 SOLVING FOR ZETA FOR LAYER     2 ZONE     2

     597 UPPER PART EQS.       592 LOWER PART EQS.    BAND WIDTH + 1 =   34
 STRESS PERIOD=  1 TIMESTEP=601 LAYER=  2 ZONE=  2 ACTIVE CELLS= 1189 NUMBER OF EQUATIONS=    1189
 UBUDSV SAVING "      ZETASRF  1" ON UNIT 55 AT TIME STEP601, STRESS PERIOD    1

 HEAD WILL BE SAVED ON UNIT   51 AT END OF TIME STEP  601, STRESS PERIOD    1
 
 SOLVING FOR HEAD 
                                                   Max.-Head-Change                         Max.-Flux-Residual
  Residual-Control   Outer-Iter.   Inner-Iter.     Column Row Layer    Maximum-Head-Change  Column Row Layer    Maximum-Flux-Residual          L2-NORM 
          0                 1           1            30   14     1       0.6732272793E-03      49   31    1         0.5152526097E+00      0.2403123825E+01
          0                 2           1            30   17     1       0.3196770325E-04      29   14    1        -0.1009254961E-01      0.5635672987E-01
          0                 3           1            31   18     1       0.2039165921E-04      32   17    1         0.1374569854E-02      0.1706852796E-01
          0                 4           1            34   22     2       0.1168629876E-04      35   21    2         0.6863554767E-03      0.1083579194E-01
          0                 5           1            32   25     1       0.1262731146E-04      33   23    2         0.5197870129E-03      0.9046128617E-02
          0                 6           1            32   29     1       0.8389763432E-05      31   13    2         0.4461338978E-03      0.8042675744E-02

    ------------------------------------------------
       NWT REQUIRED            6 OUTER ITERATIONS 
       AND A TOTAL OF          6 INNER ITERATIONS.
    ------------------------------------------------

 OUTPUT CONTROL FOR STRESS PERIOD    1   TIME STEP  602
    SAVE HEAD FOR ALL LAYERS
 SOLVING FOR ZETA FOR LAYER     1 ZONE     2

     604 UPPER PART EQS.       595 LOWER PART EQS.    BAND WIDTH + 1 =   28
 STRESS PERIOD=  1 TIMESTEP=602 LAYER=  1 ZONE=  2 ACTIVE CELLS= 1199 NUMBER OF EQUATIONS=    1199
 SOLVING FOR ZETA FOR LAYER     2 ZONE     2

     597 UPPER PART EQS.       592 LOWER PART EQS.    BAND WIDTH + 1 =   34
 STRESS PERIOD=  1 TIMESTEP=602 LAYER=  2 ZONE=  2 ACTIVE CELLS= 1189 NUMBER OF EQUATIONS=    1189
 UBUDSV SAVING "      ZETASRF  1" ON UNIT 55 AT TIME STEP602, STRESS PERIOD    1

 HEAD WILL BE SAVED ON UNIT   51 AT END OF TIME STEP  602, STRESS PERIOD    1
 
 SOLVING FOR HEAD 
                                                   Max.-Head-Change                         Max.-Flux-Residual
  Residual-Control   Outer-Iter.   Inner-Iter.     Column Row Layer    Maximum-Head-Change  Column Row Layer    Maximum-Flux-Residual          L2-NORM 
          0                 1           1            31   13     1       0.6083060061E-03      31   13    1         0.5158144980E+00      0.1861003360E+01
          0                 2           1            45   32     1       0.3385694777E-04      45   32    1         0.1033039692E-01      0.4550445504E-01
          0                 3           1            42   32     2       0.1725519955E-04      30   47    1         0.1216404703E-02      0.1497129266E-01
          0                 4           1            29   39     2       0.1153755759E-04      45   32    1         0.8392834236E-03      0.1088991935E-01
          0                 5           1            31   35     2       0.1236559175E-04      15   30    1         0.5402442079E-03      0.9418405462E-02
          0                 6           1            29   35     2       0.9259503293E-05      45   32    1         0.5900524026E-03      0.8420172381E-02

    ------------------------------------------------
       NWT REQUIRED            6 OUTER ITERATIONS 
       AND A TOTAL OF          6 INNER ITERATIONS.
    ------------------------------------------------

 OUTPUT CONTROL FOR STRESS PERIOD    1   TIME STEP  603
    SAVE HEAD FOR ALL LAYERS
 SOLVING FOR ZETA FOR LAYER     1 ZONE     2

     604 UPPER PART EQS.       597 LOWER PART EQS.    BAND WIDTH + 1 =   26
 STRESS PERIOD=  1 TIMESTEP=603 LAYER=  1 ZONE=  2 ACTIVE CELLS= 1201 NUMBER OF EQUATIONS=    1201
 SOLVING FOR ZETA FOR LAYER     2 ZONE     2

     595 UPPER PART EQS.       596 LOWER PART EQS.    BAND WIDTH + 1 =   34
 STRESS PERIOD=  1 TIMESTEP=603 LAYER=  2 ZONE=  2 ACTIVE CELLS= 1191 NUMBER OF EQUATIONS=    1191
 UBUDSV SAVING "      ZETASRF  1" ON UNIT 55 AT TIME STEP603, STRESS PERIOD    1

 HEAD WILL BE SAVED ON UNIT   51 AT END OF TIME STEP  603, STRESS PERIOD    1
 
 SOLVING FOR HEAD 
                                                   Max.-Head-Change                         Max.-Flux-Residual
  Residual-Control   Outer-Iter.   Inner-Iter.     Column Row Layer    Maximum-Head-Change  Column Row Layer    Maximum-Flux-Residual          L2-NORM 
          0                 1           1            13   32     1       0.8475839188E-03      33   49    1         0.5415377759E+00      0.2981220170E+01
          0                 2           1            44   33     1      -0.5506532871E-04      45   34    1        -0.1584110710E-01      0.8130000982E-01
          0                 3           1            43   31     2      -0.2773488605E-04      42   30    2        -0.2314438958E-02      0.1774856152E-01
          0                 4           1            44   33     1      -0.1167773782E-04      44   33    1        -0.1069223736E-02      0.9538957363E-02
          0                 5           1            46   31     1      -0.8781403193E-05      46   31    1        -0.7411187549E-03      0.6741551924E-02

    ------------------------------------------------
       NWT REQUIRED            5 OUTER ITERATIONS 
       AND A TOTAL OF          5 INNER ITERATIONS.
    ------------------------------------------------

 OUTPUT CONTROL FOR STRESS PERIOD    1   TIME STEP  604
    SAVE HEAD FOR ALL LAYERS
 SOLVING FOR ZETA FOR LAYER     1 ZONE     2

     591 UPPER PART EQS.       589 LOWER PART EQS.    BAND WIDTH + 1 =   25
 STRESS PERIOD=  1 TIMESTEP=604 LAYER=  1 ZONE=  2 ACTIVE CELLS= 1180 NUMBER OF EQUATIONS=    1180
 SOLVING FOR ZETA FOR LAYER     2 ZONE     2

     593 UPPER PART EQS.       600 LOWER PART EQS.    BAND WIDTH + 1 =   32
 STRESS PERIOD=  1 TIMESTEP=604 LAYER=  2 ZONE=  2 ACTIVE CELLS= 1193 NUMBER OF EQUATIONS=    1193
 UBUDSV SAVING "      ZETASRF  1" ON UNIT 55 AT TIME STEP604, STRESS PERIOD    1

 HEAD WILL BE SAVED ON UNIT   51 AT END OF TIME STEP  604, STRESS PERIOD    1
 
 SOLVING FOR HEAD 
                                                   Max.-Head-Change                         Max.-Flux-Residual
  Residual-Control   Outer-Iter.   Inner-Iter.     Column Row Layer    Maximum-Head-Change  Column Row Layer    Maximum-Flux-Residual          L2-NORM 
          0                 1           1            30   48     1      -0.9484321694E-03      29   49    1         0.5377484836E+00      0.3633852859E+01
          0                 2           1            29   45     2      -0.4667054696E-04      28   49    1        -0.1562806687E-01      0.8858477654E-01
          0                 3           1            29   44     1      -0.2659990660E-04      30   47    1        -0.2415516436E-02      0.2192970910E-01
          0                 4           1            43   30     1       0.1027000963E-04      28   49    1        -0.1035272832E-02      0.1076159796E-01
          0                 5           1            42   30     2       0.9417670608E-05      30   47    1        -0.7638398658E-03      0.7053039926E-02

    ------------------------------------------------
       NWT REQUIRED            5 OUTER ITERATIONS 
       AND A TOTAL OF          5 INNER ITERATIONS.
    ------------------------------------------------

 OUTPUT CONTROL FOR STRESS PERIOD    1   TIME STEP  605
    SAVE HEAD FOR ALL LAYERS
 SOLVING FOR ZETA FOR LAYER     1 ZONE     2

     589 UPPER PART EQS.       588 LOWER PART EQS.    BAND WIDTH + 1 =   24
 STRESS PERIOD=  1 TIMESTEP=605 LAYER=  1 ZONE=  2 ACTIVE CELLS= 1177 NUMBER OF EQUATIONS=    1177
 SOLVING FOR ZETA FOR LAYER     2 ZONE     2

     597 UPPER PART EQS.       598 LOWER PART EQS.    BAND WIDTH + 1 =   32
 STRESS PERIOD=  1 TIMESTEP=605 LAYER=  2 ZONE=  2 ACTIVE CELLS= 1195 NUMBER OF EQUATIONS=    1195
 UBUDSV SAVING "      ZETASRF  1" ON UNIT 55 AT TIME STEP605, STRESS PERIOD    1

 HEAD WILL BE SAVED ON UNIT   51 AT END OF TIME STEP  605, STRESS PERIOD    1
 
 SOLVING FOR HEAD 
                                                   Max.-Head-Change                         Max.-Flux-Residual
  Residual-Control   Outer-Iter.   Inner-Iter.     Column Row Layer    Maximum-Head-Change  Column Row Layer    Maximum-Flux-Residual          L2-NORM 
          0                 1           1            30   48     1       0.9430145823E-03      29   48    1         0.5200943177E+00      0.2664220930E+01
          0                 2           1            31   45     2       0.6272395314E-04      28   49    1         0.1631586968E-01      0.7799683039E-01
          0                 3           1            29   44     1       0.3353817041E-04      30   47    1         0.2863734258E-02      0.2405207469E-01
          0                 4           1            29   41     2       0.1812308497E-04      28   49    1         0.1395366738E-02      0.1537739393E-01
          0                 5           1            29   39     2       0.1698831610E-04      30   47    1         0.9628388115E-03      0.1287200112E-01
          0                 6           1            29   37     2       0.1270278809E-04      35   46    1         0.8216259957E-03      0.1146676474E-01
          0                 7           1            29   35     2       0.1245578882E-04      30   47    1         0.6765703489E-03      0.1025032969E-01
          0                 8           1            29   35     2       0.1013439620E-04      35   46    1         0.6224197836E-03      0.9269209855E-02
          0                 9           1            30   34     2       0.9478603502E-05      30   47    1         0.5195597303E-03      0.8325538766E-02

    ------------------------------------------------
       NWT REQUIRED            9 OUTER ITERATIONS 
       AND A TOTAL OF          9 INNER ITERATIONS.
    ------------------------------------------------

 OUTPUT CONTROL FOR STRESS PERIOD    1   TIME STEP  606
    SAVE HEAD FOR ALL LAYERS
 SOLVING FOR ZETA FOR LAYER     1 ZONE     2

     606 UPPER PART EQS.       592 LOWER PART EQS.    BAND WIDTH + 1 =   31
 STRESS PERIOD=  1 TIMESTEP=606 LAYER=  1 ZONE=  2 ACTIVE CELLS= 1198 NUMBER OF EQUATIONS=    1198
 SOLVING FOR ZETA FOR LAYER     2 ZONE     2

     597 UPPER PART EQS.       600 LOWER PART EQS.    BAND WIDTH + 1 =   32
 STRESS PERIOD=  1 TIMESTEP=606 LAYER=  2 ZONE=  2 ACTIVE CELLS= 1197 NUMBER OF EQUATIONS=    1197
 UBUDSV SAVING "      ZETASRF  1" ON UNIT 55 AT TIME STEP606, STRESS PERIOD    1

 HEAD WILL BE SAVED ON UNIT   51 AT END OF TIME STEP  606, STRESS PERIOD    1
 
 SOLVING FOR HEAD 
                                                   Max.-Head-Change                         Max.-Flux-Residual
  Residual-Control   Outer-Iter.   Inner-Iter.     Column Row Layer    Maximum-Head-Change  Column Row Layer    Maximum-Flux-Residual          L2-NORM 
          0                 1           1            48   32     1      -0.6509542954E-03      14   30    1        -0.5010849988E+00      0.2255167027E+01
          0                 2           1            44   33     1      -0.2661469760E-04      10   33    1         0.9676444410E-02      0.5221800456E-01
          0                 3           1            31   18     1       0.1438569069E-04      46   31    1        -0.1036715755E-02      0.1129893799E-01
          0                 4           1            31   21     2       0.6992910197E-05      44   33    1        -0.5113994441E-03      0.5601081658E-02

    ------------------------------------------------
       NWT REQUIRED            4 OUTER ITERATIONS 
       AND A TOTAL OF          4 INNER ITERATIONS.
    ------------------------------------------------

 OUTPUT CONTROL FOR STRESS PERIOD    1   TIME STEP  607
    SAVE HEAD FOR ALL LAYERS
 SOLVING FOR ZETA FOR LAYER     1 ZONE     2

     594 UPPER PART EQS.       595 LOWER PART EQS.    BAND WIDTH + 1 =   26
 STRESS PERIOD=  1 TIMESTEP=607 LAYER=  1 ZONE=  2 ACTIVE CELLS= 1189 NUMBER OF EQUATIONS=    1189
 SOLVING FOR ZETA FOR LAYER     2 ZONE     2

     599 UPPER PART EQS.       600 LOWER PART EQS.    BAND WIDTH + 1 =   33
 STRESS PERIOD=  1 TIMESTEP=607 LAYER=  2 ZONE=  2 ACTIVE CELLS= 1199 NUMBER OF EQUATIONS=    1199
 UBUDSV SAVING "      ZETASRF  1" ON UNIT 55 AT TIME STEP607, STRESS PERIOD    1

 HEAD WILL BE SAVED ON UNIT   51 AT END OF TIME STEP  607, STRESS PERIOD    1
 
 SOLVING FOR HEAD 
                                                   Max.-Head-Change                         Max.-Flux-Residual
  Residual-Control   Outer-Iter.   Inner-Iter.     Column Row Layer    Maximum-Head-Change  Column Row Layer    Maximum-Flux-Residual          L2-NORM 
          0                 1           1            32   48     1      -0.9486234201E-03      29   14    1        -0.5288286983E+00      0.3284228650E+01
          0                 2           1            35   46     1      -0.5402209050E-04      28   49    1        -0.1608755510E-01      0.8794799984E-01
          0                 3           1            31   46     1      -0.2622515052E-04      31   46    1        -0.2576233883E-02      0.2053740690E-01
          0                 4           1            31   43     2      -0.1101504662E-04      29   48    1        -0.1124054218E-02      0.1026802091E-01
          0                 5           1            31   46     1      -0.8576290332E-05      33   48    1        -0.7515676002E-03      0.7511543318E-02

    ------------------------------------------------
       NWT REQUIRED            5 OUTER ITERATIONS 
       AND A TOTAL OF          5 INNER ITERATIONS.
    ------------------------------------------------

 OUTPUT CONTROL FOR STRESS PERIOD    1   TIME STEP  608
    SAVE HEAD FOR ALL LAYERS
 SOLVING FOR ZETA FOR LAYER     1 ZONE     2

     600 UPPER PART EQS.       588 LOWER PART EQS.    BAND WIDTH + 1 =   31
 STRESS PERIOD=  1 TIMESTEP=608 LAYER=  1 ZONE=  2 ACTIVE CELLS= 1188 NUMBER OF EQUATIONS=    1188
 SOLVING FOR ZETA FOR LAYER     2 ZONE     2

     601 UPPER PART EQS.       600 LOWER PART EQS.    BAND WIDTH + 1 =   34
 STRESS PERIOD=  1 TIMESTEP=608 LAYER=  2 ZONE=  2 ACTIVE CELLS= 1201 NUMBER OF EQUATIONS=    1201
 UBUDSV SAVING "      ZETASRF  1" ON UNIT 55 AT TIME STEP608, STRESS PERIOD    1

 HEAD WILL BE SAVED ON UNIT   51 AT END OF TIME STEP  608, STRESS PERIOD    1
 
 SOLVING FOR HEAD 
                                                   Max.-Head-Change                         Max.-Flux-Residual
  Residual-Control   Outer-Iter.   Inner-Iter.     Column Row Layer    Maximum-Head-Change  Column Row Layer    Maximum-Flux-Residual          L2-NORM 
          0                 1           1            32   48     1       0.9253957183E-03      29   48    1        -0.5286347896E+00      0.3041101486E+01
          0                 2           1            45   32     1       0.5686662753E-04      28   49    1         0.1617810444E-01      0.9201219043E-01
          0                 3           1            43   31     2       0.2491768090E-04      31   46    1         0.2495475877E-02      0.2447831298E-01
          0                 4           1            44   33     1       0.1153463913E-04      45   32    1         0.1099982198E-02      0.1384109300E-01
          0                 5           1            40   33     1       0.1208038464E-04      47   30    1         0.7253319571E-03      0.1120234268E-01
          0                 6           1            30   30     2       0.9593727766E-05      44   33    1         0.6100371460E-03      0.9934069701E-02

    ------------------------------------------------
       NWT REQUIRED            6 OUTER ITERATIONS 
       AND A TOTAL OF          6 INNER ITERATIONS.
    ------------------------------------------------

 OUTPUT CONTROL FOR STRESS PERIOD    1   TIME STEP  609
    SAVE HEAD FOR ALL LAYERS
 SOLVING FOR ZETA FOR LAYER     1 ZONE     2

     604 UPPER PART EQS.       596 LOWER PART EQS.    BAND WIDTH + 1 =   27
 STRESS PERIOD=  1 TIMESTEP=609 LAYER=  1 ZONE=  2 ACTIVE CELLS= 1200 NUMBER OF EQUATIONS=    1200
 SOLVING FOR ZETA FOR LAYER     2 ZONE     2

     599 UPPER PART EQS.       604 LOWER PART EQS.    BAND WIDTH + 1 =   32
 STRESS PERIOD=  1 TIMESTEP=609 LAYER=  2 ZONE=  2 ACTIVE CELLS= 1203 NUMBER OF EQUATIONS=    1203
 UBUDSV SAVING "      ZETASRF  1" ON UNIT 55 AT TIME STEP609, STRESS PERIOD    1

 HEAD WILL BE SAVED ON UNIT   51 AT END OF TIME STEP  609, STRESS PERIOD    1
 
 SOLVING FOR HEAD 
                                                   Max.-Head-Change                         Max.-Flux-Residual
  Residual-Control   Outer-Iter.   Inner-Iter.     Column Row Layer    Maximum-Head-Change  Column Row Layer    Maximum-Flux-Residual          L2-NORM 
          0                 1           1            48   32     1      -0.6438749061E-03      29   48    1         0.5134635955E+00      0.2063190218E+01
          0                 2           1            29   16     1       0.2730703056E-04      26   49    1         0.9847820131E-02      0.5304184753E-01
          0                 3           1            29   43     2       0.1860570516E-04      30   47    1         0.1216089959E-02      0.1439512247E-01
          0                 4           1            30   40     2       0.9461806247E-05      31   21    2         0.5628816521E-03      0.8278408236E-02

    ------------------------------------------------
       NWT REQUIRED            4 OUTER ITERATIONS 
       AND A TOTAL OF          4 INNER ITERATIONS.
    ------------------------------------------------

 OUTPUT CONTROL FOR STRESS PERIOD    1   TIME STEP  610
    SAVE HEAD FOR ALL LAYERS
 SOLVING FOR ZETA FOR LAYER     1 ZONE     2

     592 UPPER PART EQS.       596 LOWER PART EQS.    BAND WIDTH + 1 =   26
 STRESS PERIOD=  1 TIMESTEP=610 LAYER=  1 ZONE=  2 ACTIVE CELLS= 1188 NUMBER OF EQUATIONS=    1188
 SOLVING FOR ZETA FOR LAYER     2 ZONE     2

     601 UPPER PART EQS.       604 LOWER PART EQS.    BAND WIDTH + 1 =   32
 STRESS PERIOD=  1 TIMESTEP=610 LAYER=  2 ZONE=  2 ACTIVE CELLS= 1205 NUMBER OF EQUATIONS=    1205
 UBUDSV SAVING "      ZETASRF  1" ON UNIT 55 AT TIME STEP610, STRESS PERIOD    1

 HEAD WILL BE SAVED ON UNIT   51 AT END OF TIME STEP  610, STRESS PERIOD    1
 
 SOLVING FOR HEAD 
                                                   Max.-Head-Change                         Max.-Flux-Residual
  Residual-Control   Outer-Iter.   Inner-Iter.     Column Row Layer    Maximum-Head-Change  Column Row Layer    Maximum-Flux-Residual          L2-NORM 
          0                 1           1            31   48     1      -0.8728796979E-03      32   48    1        -0.4972965168E+00      0.2703230262E+01
          0                 2           1            31   45     2      -0.3775503231E-04      28   49    1        -0.1430856572E-01      0.6655353553E-01
          0                 3           1            30   45     1      -0.1724978854E-04      31   46    1        -0.1755598147E-02      0.1640284288E-01
          0                 4           1            39   30     1       0.7712338414E-05      29   48    1        -0.7828572419E-03      0.7772896074E-02

    ------------------------------------------------
       NWT REQUIRED            4 OUTER ITERATIONS 
       AND A TOTAL OF          4 INNER ITERATIONS.
    ------------------------------------------------

 OUTPUT CONTROL FOR STRESS PERIOD    1   TIME STEP  611
    SAVE HEAD FOR ALL LAYERS
 SOLVING FOR ZETA FOR LAYER     1 ZONE     2

     594 UPPER PART EQS.       589 LOWER PART EQS.    BAND WIDTH + 1 =   23
 STRESS PERIOD=  1 TIMESTEP=611 LAYER=  1 ZONE=  2 ACTIVE CELLS= 1183 NUMBER OF EQUATIONS=    1183
 SOLVING FOR ZETA FOR LAYER     2 ZONE     2

     601 UPPER PART EQS.       596 LOWER PART EQS.    BAND WIDTH + 1 =   32
 STRESS PERIOD=  1 TIMESTEP=611 LAYER=  2 ZONE=  2 ACTIVE CELLS= 1197 NUMBER OF EQUATIONS=    1197
 UBUDSV SAVING "      ZETASRF  1" ON UNIT 55 AT TIME STEP611, STRESS PERIOD    1

 HEAD WILL BE SAVED ON UNIT   51 AT END OF TIME STEP  611, STRESS PERIOD    1
 
 SOLVING FOR HEAD 
                                                   Max.-Head-Change                         Max.-Flux-Residual
  Residual-Control   Outer-Iter.   Inner-Iter.     Column Row Layer    Maximum-Head-Change  Column Row Layer    Maximum-Flux-Residual          L2-NORM 
          0                 1           1            31   48     1       0.8457965757E-03      33   48    1        -0.5244654054E+00      0.3400706367E+01
          0                 2           1            28   51     1      -0.3295352655E-04      28   49    1         0.1466106021E-01      0.6541674136E-01
          0                 3           1            29   43     2       0.2184181431E-04      30   47    1         0.1611777111E-02      0.1532114574E-01
          0                 4           1            28   40     2       0.1038945508E-04      28   40    2         0.6834634736E-03      0.7836978913E-02
          0                 5           1            29   40     1       0.9197819759E-05      30   47    1         0.5336349560E-03      0.5603854723E-02

    ------------------------------------------------
       NWT REQUIRED            5 OUTER ITERATIONS 
       AND A TOTAL OF          5 INNER ITERATIONS.
    ------------------------------------------------

 OUTPUT CONTROL FOR STRESS PERIOD    1   TIME STEP  612
    SAVE HEAD FOR ALL LAYERS
 SOLVING FOR ZETA FOR LAYER     1 ZONE     2

     608 UPPER PART EQS.       589 LOWER PART EQS.    BAND WIDTH + 1 =   37
 STRESS PERIOD=  1 TIMESTEP=612 LAYER=  1 ZONE=  2 ACTIVE CELLS= 1197 NUMBER OF EQUATIONS=    1197
 SOLVING FOR ZETA FOR LAYER     2 ZONE     2

     601 UPPER PART EQS.       604 LOWER PART EQS.    BAND WIDTH + 1 =   32
 STRESS PERIOD=  1 TIMESTEP=612 LAYER=  2 ZONE=  2 ACTIVE CELLS= 1205 NUMBER OF EQUATIONS=    1205
 UBUDSV SAVING "      ZETASRF  1" ON UNIT 55 AT TIME STEP612, STRESS PERIOD    1

 HEAD WILL BE SAVED ON UNIT   51 AT END OF TIME STEP  612, STRESS PERIOD    1
 
 SOLVING FOR HEAD 
                                                   Max.-Head-Change                         Max.-Flux-Residual
  Residual-Control   Outer-Iter.   Inner-Iter.     Column Row Layer    Maximum-Head-Change  Column Row Layer    Maximum-Flux-Residual          L2-NORM 
          0                 1           1            29   14     1       0.6788486090E-03      29   49    1         0.5231205096E+00      0.3030382536E+01
          0                 2           1            29   16     1       0.4670846016E-04      30   49    1         0.1057757423E-01      0.6490346005E-01
          0                 3           1            32   17     1       0.2666100341E-04      32   17    1         0.1936464112E-02      0.1485415490E-01
          0                 4           1            31   20     1       0.1189076148E-04      32   20    2         0.7475780741E-03      0.8080740064E-02
          0                 5           1            31   21     2       0.9780328936E-05      33   16    1         0.4611710940E-03      0.6271835189E-02

    ------------------------------------------------
       NWT REQUIRED            5 OUTER ITERATIONS 
       AND A TOTAL OF          5 INNER ITERATIONS.
    ------------------------------------------------

 OUTPUT CONTROL FOR STRESS PERIOD    1   TIME STEP  613
    SAVE HEAD FOR ALL LAYERS
 SOLVING FOR ZETA FOR LAYER     1 ZONE     2

     594 UPPER PART EQS.       594 LOWER PART EQS.    BAND WIDTH + 1 =   26
 STRESS PERIOD=  1 TIMESTEP=613 LAYER=  1 ZONE=  2 ACTIVE CELLS= 1188 NUMBER OF EQUATIONS=    1188
 SOLVING FOR ZETA FOR LAYER     2 ZONE     2

     605 UPPER PART EQS.       604 LOWER PART EQS.    BAND WIDTH + 1 =   32
 STRESS PERIOD=  1 TIMESTEP=613 LAYER=  2 ZONE=  2 ACTIVE CELLS= 1209 NUMBER OF EQUATIONS=    1209
 UBUDSV SAVING "      ZETASRF  1" ON UNIT 55 AT TIME STEP613, STRESS PERIOD    1

 HEAD WILL BE SAVED ON UNIT   51 AT END OF TIME STEP  613, STRESS PERIOD    1
 
 SOLVING FOR HEAD 
                                                   Max.-Head-Change                         Max.-Flux-Residual
  Residual-Control   Outer-Iter.   Inner-Iter.     Column Row Layer    Maximum-Head-Change  Column Row Layer    Maximum-Flux-Residual          L2-NORM 
          0                 1           1            31   48     1      -0.8189652975E-03      29   48    1         0.5081643029E+00      0.2594913900E+01
          0                 2           1            35   46     1      -0.2810977162E-04      28   49    1        -0.1451797844E-01      0.6245258122E-01
          0                 3           1            41   31     2       0.1581592231E-04      31   46    1        -0.1507084913E-02      0.1528656363E-01
          0                 4           1            39   30     1       0.8694124816E-05      31   50    1        -0.7204203644E-03      0.8119816400E-02

    ------------------------------------------------
       NWT REQUIRED            4 OUTER ITERATIONS 
       AND A TOTAL OF          4 INNER ITERATIONS.
    ------------------------------------------------

 OUTPUT CONTROL FOR STRESS PERIOD    1   TIME STEP  614
    SAVE HEAD FOR ALL LAYERS
 SOLVING FOR ZETA FOR LAYER     1 ZONE     2

     600 UPPER PART EQS.       595 LOWER PART EQS.    BAND WIDTH + 1 =   24
 STRESS PERIOD=  1 TIMESTEP=614 LAYER=  1 ZONE=  2 ACTIVE CELLS= 1195 NUMBER OF EQUATIONS=    1195
 SOLVING FOR ZETA FOR LAYER     2 ZONE     2

     605 UPPER PART EQS.       604 LOWER PART EQS.    BAND WIDTH + 1 =   32
 STRESS PERIOD=  1 TIMESTEP=614 LAYER=  2 ZONE=  2 ACTIVE CELLS= 1209 NUMBER OF EQUATIONS=    1209
 UBUDSV SAVING "      ZETASRF  1" ON UNIT 55 AT TIME STEP614, STRESS PERIOD    1

 HEAD WILL BE SAVED ON UNIT   51 AT END OF TIME STEP  614, STRESS PERIOD    1
 
 SOLVING FOR HEAD 
                                                   Max.-Head-Change                         Max.-Flux-Residual
  Residual-Control   Outer-Iter.   Inner-Iter.     Column Row Layer    Maximum-Head-Change  Column Row Layer    Maximum-Flux-Residual          L2-NORM 
          0                 1           1            31   48     1       0.8683473198E-03      31   14    1        -0.4843557817E+00      0.2053558514E+01
          0                 2           1            31   45     2       0.4658611523E-04      28   49    1         0.1589940423E-01      0.6227620750E-01
          0                 3           1            31   44     1       0.2641328616E-04      31   46    1         0.2224576140E-02      0.1996496979E-01
          0                 4           1            30   40     2       0.1605621124E-04      35   46    1         0.1083416273E-02      0.1403733340E-01
          0                 5           1            31   37     2       0.1513057892E-04      33   48    1         0.8892863119E-03      0.1221017550E-01
          0                 6           1            30   35     1       0.1216802558E-04      29   48    1         0.7848041420E-03      0.1096606582E-01
          0                 7           1            30   34     2       0.1151814729E-04      32   47    1         0.6244056057E-03      0.9857458346E-02
          0                 8           1            30   34     2       0.9837284000E-05      29   48    1         0.6388853049E-03      0.8907071464E-02

    ------------------------------------------------
       NWT REQUIRED            8 OUTER ITERATIONS 
       AND A TOTAL OF          8 INNER ITERATIONS.
    ------------------------------------------------

 OUTPUT CONTROL FOR STRESS PERIOD    1   TIME STEP  615
    SAVE HEAD FOR ALL LAYERS
 SOLVING FOR ZETA FOR LAYER     1 ZONE     2

     591 UPPER PART EQS.       597 LOWER PART EQS.    BAND WIDTH + 1 =   24
 STRESS PERIOD=  1 TIMESTEP=615 LAYER=  1 ZONE=  2 ACTIVE CELLS= 1188 NUMBER OF EQUATIONS=    1188
 SOLVING FOR ZETA FOR LAYER     2 ZONE     2

     605 UPPER PART EQS.       604 LOWER PART EQS.    BAND WIDTH + 1 =   32
 STRESS PERIOD=  1 TIMESTEP=615 LAYER=  2 ZONE=  2 ACTIVE CELLS= 1209 NUMBER OF EQUATIONS=    1209
 UBUDSV SAVING "      ZETASRF  1" ON UNIT 55 AT TIME STEP615, STRESS PERIOD    1

 HEAD WILL BE SAVED ON UNIT   51 AT END OF TIME STEP  615, STRESS PERIOD    1
 
 SOLVING FOR HEAD 
                                                   Max.-Head-Change                         Max.-Flux-Residual
  Residual-Control   Outer-Iter.   Inner-Iter.     Column Row Layer    Maximum-Head-Change  Column Row Layer    Maximum-Flux-Residual          L2-NORM 
          0                 1           1            48   32     1      -0.8109994455E-03      33   49    1         0.5207367137E+00      0.3170117806E+01
          0                 2           1            44   33     1      -0.5346457137E-04      45   34    1        -0.1529176541E-01      0.7777438956E-01
          0                 3           1            43   31     2      -0.2685597938E-04      42   30    2        -0.2231561130E-02      0.1749774538E-01
          0                 4           1            44   33     1      -0.1099098899E-04      44   33    1        -0.1053652441E-02      0.9221359443E-02
          0                 5           1            46   31     1      -0.8350010223E-05      46   31    1        -0.7160104130E-03      0.6445063826E-02

    ------------------------------------------------
       NWT REQUIRED            5 OUTER ITERATIONS 
       AND A TOTAL OF          5 INNER ITERATIONS.
    ------------------------------------------------

 OUTPUT CONTROL FOR STRESS PERIOD    1   TIME STEP  616
    SAVE HEAD FOR ALL LAYERS
 SOLVING FOR ZETA FOR LAYER     1 ZONE     2

     595 UPPER PART EQS.       589 LOWER PART EQS.    BAND WIDTH + 1 =   26
 STRESS PERIOD=  1 TIMESTEP=616 LAYER=  1 ZONE=  2 ACTIVE CELLS= 1184 NUMBER OF EQUATIONS=    1184
 SOLVING FOR ZETA FOR LAYER     2 ZONE     2

     605 UPPER PART EQS.       604 LOWER PART EQS.    BAND WIDTH + 1 =   32
 STRESS PERIOD=  1 TIMESTEP=616 LAYER=  2 ZONE=  2 ACTIVE CELLS= 1209 NUMBER OF EQUATIONS=    1209
 UBUDSV SAVING "      ZETASRF  1" ON UNIT 55 AT TIME STEP616, STRESS PERIOD    1

 HEAD WILL BE SAVED ON UNIT   51 AT END OF TIME STEP  616, STRESS PERIOD    1
 
 SOLVING FOR HEAD 
                                                   Max.-Head-Change                         Max.-Flux-Residual
  Residual-Control   Outer-Iter.   Inner-Iter.     Column Row Layer    Maximum-Head-Change  Column Row Layer    Maximum-Flux-Residual          L2-NORM 
          0                 1           1            30   48     1      -0.9143852939E-03      29   48    1        -0.5178312664E+00      0.3245045212E+01
          0                 2           1            45   34     1       0.4616858583E-04      28   49    1        -0.1515499438E-01      0.8426629866E-01
          0                 3           1            29   44     1      -0.2569344462E-04      30   47    1        -0.2360844604E-02      0.2131317880E-01
          0                 4           1            43   30     1       0.9974773425E-05      28   49    1        -0.1034008828E-02      0.1037218328E-01

    ------------------------------------------------
       NWT REQUIRED            4 OUTER ITERATIONS 
       AND A TOTAL OF          4 INNER ITERATIONS.
    ------------------------------------------------

 OUTPUT CONTROL FOR STRESS PERIOD    1   TIME STEP  617
    SAVE HEAD FOR ALL LAYERS
 SOLVING FOR ZETA FOR LAYER     1 ZONE     2

     596 UPPER PART EQS.       594 LOWER PART EQS.    BAND WIDTH + 1 =   23
 STRESS PERIOD=  1 TIMESTEP=617 LAYER=  1 ZONE=  2 ACTIVE CELLS= 1190 NUMBER OF EQUATIONS=    1190
 SOLVING FOR ZETA FOR LAYER     2 ZONE     2

     601 UPPER PART EQS.       604 LOWER PART EQS.    BAND WIDTH + 1 =   32
 STRESS PERIOD=  1 TIMESTEP=617 LAYER=  2 ZONE=  2 ACTIVE CELLS= 1205 NUMBER OF EQUATIONS=    1205
 UBUDSV SAVING "      ZETASRF  1" ON UNIT 55 AT TIME STEP617, STRESS PERIOD    1

 HEAD WILL BE SAVED ON UNIT   51 AT END OF TIME STEP  617, STRESS PERIOD    1
 
 SOLVING FOR HEAD 
                                                   Max.-Head-Change                         Max.-Flux-Residual
  Residual-Control   Outer-Iter.   Inner-Iter.     Column Row Layer    Maximum-Head-Change  Column Row Layer    Maximum-Flux-Residual          L2-NORM 
          0                 1           1            30   48     1       0.9101652845E-03      29   48    1         0.5031590367E+00      0.2337653819E+01
          0                 2           1            31   45     2       0.5972038458E-04      28   49    1         0.1561046429E-01      0.7494718813E-01
          0                 3           1            29   44     1       0.3118299081E-04      30   47    1         0.2708894846E-02      0.2312800822E-01
          0                 4           1            29   41     2       0.1710236821E-04      28   49    1         0.1294375243E-02      0.1520269415E-01
          0                 5           1            30   38     2       0.1633014428E-04      30   47    1         0.9146938684E-03      0.1289599130E-01
          0                 6           1            29   35     2       0.1218969470E-04      35   46    1         0.7966455133E-03      0.1154943733E-01
          0                 7           1            30   34     2       0.1260680072E-04      30   47    1         0.6522739628E-03      0.1033672409E-01
          0                 8           1            30   34     2       0.9762994062E-05      35   46    1         0.6147473982E-03      0.9359550363E-02

    ------------------------------------------------
       NWT REQUIRED            8 OUTER ITERATIONS 
       AND A TOTAL OF          8 INNER ITERATIONS.
    ------------------------------------------------

 OUTPUT CONTROL FOR STRESS PERIOD    1   TIME STEP  618
    SAVE HEAD FOR ALL LAYERS
 SOLVING FOR ZETA FOR LAYER     1 ZONE     2

     608 UPPER PART EQS.       591 LOWER PART EQS.    BAND WIDTH + 1 =   33
 STRESS PERIOD=  1 TIMESTEP=618 LAYER=  1 ZONE=  2 ACTIVE CELLS= 1199 NUMBER OF EQUATIONS=    1199
 SOLVING FOR ZETA FOR LAYER     2 ZONE     2

     603 UPPER PART EQS.       604 LOWER PART EQS.    BAND WIDTH + 1 =   32
 STRESS PERIOD=  1 TIMESTEP=618 LAYER=  2 ZONE=  2 ACTIVE CELLS= 1207 NUMBER OF EQUATIONS=    1207
 UBUDSV SAVING "      ZETASRF  1" ON UNIT 55 AT TIME STEP618, STRESS PERIOD    1

 HEAD WILL BE SAVED ON UNIT   51 AT END OF TIME STEP  618, STRESS PERIOD    1
 
 SOLVING FOR HEAD 
                                                   Max.-Head-Change                         Max.-Flux-Residual
  Residual-Control   Outer-Iter.   Inner-Iter.     Column Row Layer    Maximum-Head-Change  Column Row Layer    Maximum-Flux-Residual          L2-NORM 
          0                 1           1            48   32     1      -0.6306618484E-03      49   32    1         0.4872866450E+00      0.2427231839E+01
          0                 2           1            44   33     1      -0.2523741878E-04      10   33    1         0.9400621669E-02      0.5152330057E-01
          0                 3           1            32   17     1       0.1505468217E-04      32   17    1         0.1016055738E-02      0.1124947239E-01
          0                 4           1            31   21     2       0.7545617699E-05      32   20    2         0.4614657814E-03      0.5761035425E-02

    ------------------------------------------------
       NWT REQUIRED            4 OUTER ITERATIONS 
       AND A TOTAL OF          4 INNER ITERATIONS.
    ------------------------------------------------

 OUTPUT CONTROL FOR STRESS PERIOD    1   TIME STEP  619
    SAVE HEAD FOR ALL LAYERS
 SOLVING FOR ZETA FOR LAYER     1 ZONE     2

     594 UPPER PART EQS.       595 LOWER PART EQS.    BAND WIDTH + 1 =   27
 STRESS PERIOD=  1 TIMESTEP=619 LAYER=  1 ZONE=  2 ACTIVE CELLS= 1189 NUMBER OF EQUATIONS=    1189
 SOLVING FOR ZETA FOR LAYER     2 ZONE     2

     605 UPPER PART EQS.       604 LOWER PART EQS.    BAND WIDTH + 1 =   32
 STRESS PERIOD=  1 TIMESTEP=619 LAYER=  2 ZONE=  2 ACTIVE CELLS= 1209 NUMBER OF EQUATIONS=    1209
 UBUDSV SAVING "      ZETASRF  1" ON UNIT 55 AT TIME STEP619, STRESS PERIOD    1

 HEAD WILL BE SAVED ON UNIT   51 AT END OF TIME STEP  619, STRESS PERIOD    1
 
 SOLVING FOR HEAD 
                                                   Max.-Head-Change                         Max.-Flux-Residual
  Residual-Control   Outer-Iter.   Inner-Iter.     Column Row Layer    Maximum-Head-Change  Column Row Layer    Maximum-Flux-Residual          L2-NORM 
          0                 1           1            32   48     1      -0.9203752903E-03      29   13    1         0.5153974469E+00      0.3122658190E+01
          0                 2           1            35   46     1      -0.5228892218E-04      28   49    1        -0.1557332514E-01      0.8475597193E-01
          0                 3           1            31   46     1      -0.2479667415E-04      31   46    1        -0.2467067832E-02      0.1962663473E-01
          0                 4           1            31   43     2      -0.1031293241E-04      29   48    1        -0.1087088815E-02      0.9615822923E-02
          0                 5           1            31   46     1      -0.7979599983E-05      33   48    1        -0.7075916003E-03      0.6884950488E-02

    ------------------------------------------------
       NWT REQUIRED            5 OUTER ITERATIONS 
       AND A TOTAL OF          5 INNER ITERATIONS.
    ------------------------------------------------

 OUTPUT CONTROL FOR STRESS PERIOD    1   TIME STEP  620
    SAVE HEAD FOR ALL LAYERS
 SOLVING FOR ZETA FOR LAYER     1 ZONE     2

     597 UPPER PART EQS.       587 LOWER PART EQS.    BAND WIDTH + 1 =   30
 STRESS PERIOD=  1 TIMESTEP=620 LAYER=  1 ZONE=  2 ACTIVE CELLS= 1184 NUMBER OF EQUATIONS=    1184
 SOLVING FOR ZETA FOR LAYER     2 ZONE     2

     605 UPPER PART EQS.       604 LOWER PART EQS.    BAND WIDTH + 1 =   32
 STRESS PERIOD=  1 TIMESTEP=620 LAYER=  2 ZONE=  2 ACTIVE CELLS= 1209 NUMBER OF EQUATIONS=    1209
 UBUDSV SAVING "      ZETASRF  1" ON UNIT 55 AT TIME STEP620, STRESS PERIOD    1

 HEAD WILL BE SAVED ON UNIT   51 AT END OF TIME STEP  620, STRESS PERIOD    1
 
 SOLVING FOR HEAD 
                                                   Max.-Head-Change                         Max.-Flux-Residual
  Residual-Control   Outer-Iter.   Inner-Iter.     Column Row Layer    Maximum-Head-Change  Column Row Layer    Maximum-Flux-Residual          L2-NORM 
          0                 1           1            32   48     1       0.8969084087E-03      29   48    1        -0.5145785471E+00      0.3097923036E+01
          0                 2           1            45   32     1       0.5457667321E-04      28   49    1         0.1573370881E-01      0.8991355694E-01
          0                 3           1            43   31     2       0.2334952655E-04      47   30    1         0.2346272603E-02      0.2184921760E-01
          0                 4           1            44   33     1       0.1035514415E-04      45   32    1         0.9936290028E-03      0.1165685823E-01
          0                 5           1            40   33     1       0.1014018320E-04      47   30    1         0.6356640004E-03      0.9213563229E-02
          0                 6           1            30   30     2       0.7819316162E-05      44   33    1         0.5127207977E-03      0.8097250853E-02

    ------------------------------------------------
       NWT REQUIRED            6 OUTER ITERATIONS 
       AND A TOTAL OF          6 INNER ITERATIONS.
    ------------------------------------------------

 OUTPUT CONTROL FOR STRESS PERIOD    1   TIME STEP  621
    SAVE HEAD FOR ALL LAYERS
 SOLVING FOR ZETA FOR LAYER     1 ZONE     2

     597 UPPER PART EQS.       596 LOWER PART EQS.    BAND WIDTH + 1 =   22
 STRESS PERIOD=  1 TIMESTEP=621 LAYER=  1 ZONE=  2 ACTIVE CELLS= 1193 NUMBER OF EQUATIONS=    1193
 SOLVING FOR ZETA FOR LAYER     2 ZONE     2

     605 UPPER PART EQS.       604 LOWER PART EQS.    BAND WIDTH + 1 =   32
 STRESS PERIOD=  1 TIMESTEP=621 LAYER=  2 ZONE=  2 ACTIVE CELLS= 1209 NUMBER OF EQUATIONS=    1209
 UBUDSV SAVING "      ZETASRF  1" ON UNIT 55 AT TIME STEP621, STRESS PERIOD    1

 HEAD WILL BE SAVED ON UNIT   51 AT END OF TIME STEP  621, STRESS PERIOD    1
 
 SOLVING FOR HEAD 
                                                   Max.-Head-Change                         Max.-Flux-Residual
  Residual-Control   Outer-Iter.   Inner-Iter.     Column Row Layer    Maximum-Head-Change  Column Row Layer    Maximum-Flux-Residual          L2-NORM 
          0                 1           1            48   32     1      -0.6259500733E-03      29   48    1         0.4992747244E+00      0.2229461383E+01
          0                 2           1            29   16     1       0.2838944530E-04      26   49    1         0.9767455911E-02      0.5830222539E-01
          0                 3           1            29   43     2       0.1906740984E-04      46   31    1        -0.1272733058E-02      0.1648247855E-01
          0                 4           1            31   21     2       0.1008732361E-04      31   21    2         0.6285775920E-03      0.9222781839E-02
          0                 5           1            30   40     2       0.9048956508E-05      30   47    1         0.4221061036E-03      0.7059550651E-02

    ------------------------------------------------
       NWT REQUIRED            5 OUTER ITERATIONS 
       AND A TOTAL OF          5 INNER ITERATIONS.
    ------------------------------------------------

 OUTPUT CONTROL FOR STRESS PERIOD    1   TIME STEP  622
    SAVE HEAD FOR ALL LAYERS
 SOLVING FOR ZETA FOR LAYER     1 ZONE     2

     596 UPPER PART EQS.       596 LOWER PART EQS.    BAND WIDTH + 1 =   24
 STRESS PERIOD=  1 TIMESTEP=622 LAYER=  1 ZONE=  2 ACTIVE CELLS= 1192 NUMBER OF EQUATIONS=    1192
 SOLVING FOR ZETA FOR LAYER     2 ZONE     2

     605 UPPER PART EQS.       600 LOWER PART EQS.    BAND WIDTH + 1 =   32
 STRESS PERIOD=  1 TIMESTEP=622 LAYER=  2 ZONE=  2 ACTIVE CELLS= 1205 NUMBER OF EQUATIONS=    1205
 UBUDSV SAVING "      ZETASRF  1" ON UNIT 55 AT TIME STEP622, STRESS PERIOD    1

 HEAD WILL BE SAVED ON UNIT   51 AT END OF TIME STEP  622, STRESS PERIOD    1
 
 SOLVING FOR HEAD 
                                                   Max.-Head-Change                         Max.-Flux-Residual
  Residual-Control   Outer-Iter.   Inner-Iter.     Column Row Layer    Maximum-Head-Change  Column Row Layer    Maximum-Flux-Residual          L2-NORM 
          0                 1           1            31   48     1      -0.8494142112E-03      32   13    1         0.4842951470E+00      0.2639049608E+01
          0                 2           1            31   45     2      -0.3694440736E-04      28   49    1        -0.1398092296E-01      0.6515108870E-01
          0                 3           1            30   45     1      -0.1722197076E-04      31   46    1        -0.1735891271E-02      0.1597010274E-01
          0                 4           1            38   30     2       0.7693320420E-05      31   50    1        -0.7586010536E-03      0.7662571875E-02

    ------------------------------------------------
       NWT REQUIRED            4 OUTER ITERATIONS 
       AND A TOTAL OF          4 INNER ITERATIONS.
    ------------------------------------------------

 OUTPUT CONTROL FOR STRESS PERIOD    1   TIME STEP  623
    SAVE HEAD FOR ALL LAYERS
 SOLVING FOR ZETA FOR LAYER     1 ZONE     2

     596 UPPER PART EQS.       595 LOWER PART EQS.    BAND WIDTH + 1 =   24
 STRESS PERIOD=  1 TIMESTEP=623 LAYER=  1 ZONE=  2 ACTIVE CELLS= 1191 NUMBER OF EQUATIONS=    1191
 SOLVING FOR ZETA FOR LAYER     2 ZONE     2

     605 UPPER PART EQS.       600 LOWER PART EQS.    BAND WIDTH + 1 =   32
 STRESS PERIOD=  1 TIMESTEP=623 LAYER=  2 ZONE=  2 ACTIVE CELLS= 1205 NUMBER OF EQUATIONS=    1205
 UBUDSV SAVING "      ZETASRF  1" ON UNIT 55 AT TIME STEP623, STRESS PERIOD    1

 HEAD WILL BE SAVED ON UNIT   51 AT END OF TIME STEP  623, STRESS PERIOD    1
 
 SOLVING FOR HEAD 
                                                   Max.-Head-Change                         Max.-Flux-Residual
  Residual-Control   Outer-Iter.   Inner-Iter.     Column Row Layer    Maximum-Head-Change  Column Row Layer    Maximum-Flux-Residual          L2-NORM 
          0                 1           1            31   48     1       0.8215134270E-03      13   33    1         0.5139685426E+00      0.2901864726E+01
          0                 2           1            28   51     1      -0.3174086337E-04      28   49    1         0.1428747634E-01      0.6097578803E-01
          0                 3           1            29   43     2       0.2095294173E-04      30   47    1         0.1568800584E-02      0.1446980077E-01
          0                 4           1            28   40     2       0.1009092282E-04      28   40    2         0.6592608598E-03      0.7551699978E-02
          0                 5           1            29   40     1       0.9235565748E-05      30   47    1         0.5265373599E-03      0.5585069078E-02

    ------------------------------------------------
       NWT REQUIRED            5 OUTER ITERATIONS 
       AND A TOTAL OF          5 INNER ITERATIONS.
    ------------------------------------------------

 OUTPUT CONTROL FOR STRESS PERIOD    1   TIME STEP  624
    SAVE HEAD FOR ALL LAYERS
 SOLVING FOR ZETA FOR LAYER     1 ZONE     2

     608 UPPER PART EQS.       590 LOWER PART EQS.    BAND WIDTH + 1 =   37
 STRESS PERIOD=  1 TIMESTEP=624 LAYER=  1 ZONE=  2 ACTIVE CELLS= 1198 NUMBER OF EQUATIONS=    1198
 SOLVING FOR ZETA FOR LAYER     2 ZONE     2

     605 UPPER PART EQS.       600 LOWER PART EQS.    BAND WIDTH + 1 =   32
 STRESS PERIOD=  1 TIMESTEP=624 LAYER=  2 ZONE=  2 ACTIVE CELLS= 1205 NUMBER OF EQUATIONS=    1205
 UBUDSV SAVING "      ZETASRF  1" ON UNIT 55 AT TIME STEP624, STRESS PERIOD    1

 HEAD WILL BE SAVED ON UNIT   51 AT END OF TIME STEP  624, STRESS PERIOD    1
 
 SOLVING FOR HEAD 
                                                   Max.-Head-Change                         Max.-Flux-Residual
  Residual-Control   Outer-Iter.   Inner-Iter.     Column Row Layer    Maximum-Head-Change  Column Row Layer    Maximum-Flux-Residual          L2-NORM 
          0                 1           1            29   14     1       0.6612528378E-03      29   49    1         0.5150024356E+00      0.2907042230E+01
          0                 2           1            29   16     1       0.4580410497E-04      30   49    1         0.1032532018E-01      0.6224768056E-01
          0                 3           1            32   17     1       0.2637998058E-04      32   17    1         0.1896270176E-02      0.1456316194E-01
          0                 4           1            31   20     1       0.1181643602E-04      32   20    2         0.7418980897E-03      0.7985355174E-02
          0                 5           1            31   21     2       0.9764221138E-05      33   16    1         0.4635213487E-03      0.6182959017E-02

    ------------------------------------------------
       NWT REQUIRED            5 OUTER ITERATIONS 
       AND A TOTAL OF          5 INNER ITERATIONS.
    ------------------------------------------------

 OUTPUT CONTROL FOR STRESS PERIOD    1   TIME STEP  625
    SAVE HEAD FOR ALL LAYERS
 SOLVING FOR ZETA FOR LAYER     1 ZONE     2

     594 UPPER PART EQS.       585 LOWER PART EQS.    BAND WIDTH + 1 =   27
 STRESS PERIOD=  1 TIMESTEP=625 LAYER=  1 ZONE=  2 ACTIVE CELLS= 1179 NUMBER OF EQUATIONS=    1179
 SOLVING FOR ZETA FOR LAYER     2 ZONE     2

     605 UPPER PART EQS.       604 LOWER PART EQS.    BAND WIDTH + 1 =   32
 STRESS PERIOD=  1 TIMESTEP=625 LAYER=  2 ZONE=  2 ACTIVE CELLS= 1209 NUMBER OF EQUATIONS=    1209
 UBUDSV SAVING "      ZETASRF  1" ON UNIT 55 AT TIME STEP625, STRESS PERIOD    1

 HEAD WILL BE SAVED ON UNIT   51 AT END OF TIME STEP  625, STRESS PERIOD    1
 
 SOLVING FOR HEAD 
                                                   Max.-Head-Change                         Max.-Flux-Residual
  Residual-Control   Outer-Iter.   Inner-Iter.     Column Row Layer    Maximum-Head-Change  Column Row Layer    Maximum-Flux-Residual          L2-NORM 
          0                 1           1            31   49     1       0.7985971962E-03      29   48    1         0.4946569837E+00      0.2810870674E+01
          0                 2           1            35   46     1      -0.2741669914E-04      28   49    1        -0.1395701430E-01      0.6433594093E-01
          0                 3           1            41   31     2       0.1497431729E-04      31   46    1        -0.1498797890E-02      0.1496189708E-01
          0                 4           1            39   30     1       0.8198999305E-05      31   50    1        -0.6673341909E-03      0.7439445199E-02

    ------------------------------------------------
       NWT REQUIRED            4 OUTER ITERATIONS 
       AND A TOTAL OF          4 INNER ITERATIONS.
    ------------------------------------------------

 OUTPUT CONTROL FOR STRESS PERIOD    1   TIME STEP  626
    SAVE HEAD FOR ALL LAYERS
 SOLVING FOR ZETA FOR LAYER     1 ZONE     2

     595 UPPER PART EQS.       590 LOWER PART EQS.    BAND WIDTH + 1 =   24
 STRESS PERIOD=  1 TIMESTEP=626 LAYER=  1 ZONE=  2 ACTIVE CELLS= 1185 NUMBER OF EQUATIONS=    1185
 SOLVING FOR ZETA FOR LAYER     2 ZONE     2

     605 UPPER PART EQS.       604 LOWER PART EQS.    BAND WIDTH + 1 =   32
 STRESS PERIOD=  1 TIMESTEP=626 LAYER=  2 ZONE=  2 ACTIVE CELLS= 1209 NUMBER OF EQUATIONS=    1209
 UBUDSV SAVING "      ZETASRF  1" ON UNIT 55 AT TIME STEP626, STRESS PERIOD    1

 HEAD WILL BE SAVED ON UNIT   51 AT END OF TIME STEP  626, STRESS PERIOD    1
 
 SOLVING FOR HEAD 
                                                   Max.-Head-Change                         Max.-Flux-Residual
  Residual-Control   Outer-Iter.   Inner-Iter.     Column Row Layer    Maximum-Head-Change  Column Row Layer    Maximum-Flux-Residual          L2-NORM 
          0                 1           1            31   48     1       0.8441272767E-03      31   14    1        -0.4724543457E+00      0.2353221201E+01
          0                 2           1            31   45     2       0.4494220172E-04      28   49    1         0.1531736296E-01      0.6696508469E-01
          0                 3           1            29   44     1       0.2541647869E-04      31   46    1         0.2139979263E-02      0.1984241073E-01
          0                 4           1            28   40     2       0.1494496615E-04      29   48    1         0.9635730850E-03      0.1305047941E-01
          0                 5           1            29   37     2       0.1408254811E-04      33   48    1         0.7523052910E-03      0.1110105374E-01
          0                 6           1            29   35     2       0.1112462137E-04      29   48    1         0.6944599165E-03      0.9894952074E-02
          0                 7           1            29   35     2       0.1056318869E-04      33   48    1         0.5290057203E-03      0.8874445605E-02
          0                 8           1            29   33     2       0.8959320063E-05      29   48    1         0.5532128817E-03      0.8005650421E-02

    ------------------------------------------------
       NWT REQUIRED            8 OUTER ITERATIONS 
       AND A TOTAL OF          8 INNER ITERATIONS.
    ------------------------------------------------

 OUTPUT CONTROL FOR STRESS PERIOD    1   TIME STEP  627
    SAVE HEAD FOR ALL LAYERS
 SOLVING FOR ZETA FOR LAYER     1 ZONE     2

     599 UPPER PART EQS.       596 LOWER PART EQS.    BAND WIDTH + 1 =   24
 STRESS PERIOD=  1 TIMESTEP=627 LAYER=  1 ZONE=  2 ACTIVE CELLS= 1195 NUMBER OF EQUATIONS=    1195
 SOLVING FOR ZETA FOR LAYER     2 ZONE     2

     605 UPPER PART EQS.       604 LOWER PART EQS.    BAND WIDTH + 1 =   32
 STRESS PERIOD=  1 TIMESTEP=627 LAYER=  2 ZONE=  2 ACTIVE CELLS= 1209 NUMBER OF EQUATIONS=    1209
 UBUDSV SAVING "      ZETASRF  1" ON UNIT 55 AT TIME STEP627, STRESS PERIOD    1

 HEAD WILL BE SAVED ON UNIT   51 AT END OF TIME STEP  627, STRESS PERIOD    1
 
 SOLVING FOR HEAD 
                                                   Max.-Head-Change                         Max.-Flux-Residual
  Residual-Control   Outer-Iter.   Inner-Iter.     Column Row Layer    Maximum-Head-Change  Column Row Layer    Maximum-Flux-Residual          L2-NORM 
          0                 1           1            48   33     1      -0.9551372002E-03      34   14    1        -0.5528205247E+00      0.3393829012E+01
          0                 2           1            44   31     1      -0.7549926917E-04      45   34    1        -0.1851284871E-01      0.1086918210E+00
          0                 3           1            43   31     2      -0.4026897867E-04      16   33    1        -0.3078219437E-02      0.2629596069E-01
          0                 4           1            43   30     1      -0.1724638924E-04      44   33    1        -0.1458871834E-02      0.1530797336E-01
          0                 5           1            42   32     2      -0.1595739158E-04      47   30    1        -0.1007368434E-02      0.1207144043E-01
          0                 6           1            43   30     1      -0.1017066531E-04      44   33    1        -0.7953092706E-03      0.1047457931E-01
          0                 7           1            42   32     2      -0.1079446731E-04      42   30    2        -0.5795391552E-03      0.9163531564E-02
          0                 8           1            38   32     2      -0.7562481602E-05      44   33    1        -0.5770730107E-03      0.8293844018E-02

    ------------------------------------------------
       NWT REQUIRED            8 OUTER ITERATIONS 
       AND A TOTAL OF          8 INNER ITERATIONS.
    ------------------------------------------------

 OUTPUT CONTROL FOR STRESS PERIOD    1   TIME STEP  628
    SAVE HEAD FOR ALL LAYERS
 SOLVING FOR ZETA FOR LAYER     1 ZONE     2

     590 UPPER PART EQS.       585 LOWER PART EQS.    BAND WIDTH + 1 =   25
 STRESS PERIOD=  1 TIMESTEP=628 LAYER=  1 ZONE=  2 ACTIVE CELLS= 1175 NUMBER OF EQUATIONS=    1175
 SOLVING FOR ZETA FOR LAYER     2 ZONE     2

     605 UPPER PART EQS.       604 LOWER PART EQS.    BAND WIDTH + 1 =   32
 STRESS PERIOD=  1 TIMESTEP=628 LAYER=  2 ZONE=  2 ACTIVE CELLS= 1209 NUMBER OF EQUATIONS=    1209
 UBUDSV SAVING "      ZETASRF  1" ON UNIT 55 AT TIME STEP628, STRESS PERIOD    1

 HEAD WILL BE SAVED ON UNIT   51 AT END OF TIME STEP  628, STRESS PERIOD    1
 
 SOLVING FOR HEAD 
                                                   Max.-Head-Change                         Max.-Flux-Residual
  Residual-Control   Outer-Iter.   Inner-Iter.     Column Row Layer    Maximum-Head-Change  Column Row Layer    Maximum-Flux-Residual          L2-NORM 
          0                 1           1            29   48     1      -0.9493023481E-03      28   14    1        -0.5530016388E+00      0.3789714554E+01
          0                 2           1            44   31     1       0.6494822801E-04      45   30    1         0.1715457586E-01      0.1142094024E+00
          0                 3           1            42   32     2       0.3812675768E-04      16   33    1         0.2735135575E-02      0.2922830467E-01
          0                 4           1            43   30     1       0.1530050681E-04      28   49    1        -0.1379171967E-02      0.1461524627E-01
          0                 5           1            42   30     2       0.1472705294E-04      47   30    1         0.8811284559E-03      0.9757081701E-02
          0                 6           1            43   30     1       0.8100612811E-05      43   30    1         0.6436646189E-03      0.7290902083E-02

    ------------------------------------------------
       NWT REQUIRED            6 OUTER ITERATIONS 
       AND A TOTAL OF          6 INNER ITERATIONS.
    ------------------------------------------------

 OUTPUT CONTROL FOR STRESS PERIOD    1   TIME STEP  629
    SAVE HEAD FOR ALL LAYERS
 SOLVING FOR ZETA FOR LAYER     1 ZONE     2

     587 UPPER PART EQS.       590 LOWER PART EQS.    BAND WIDTH + 1 =   24
 STRESS PERIOD=  1 TIMESTEP=629 LAYER=  1 ZONE=  2 ACTIVE CELLS= 1177 NUMBER OF EQUATIONS=    1177
 SOLVING FOR ZETA FOR LAYER     2 ZONE     2

     605 UPPER PART EQS.       604 LOWER PART EQS.    BAND WIDTH + 1 =   32
 STRESS PERIOD=  1 TIMESTEP=629 LAYER=  2 ZONE=  2 ACTIVE CELLS= 1209 NUMBER OF EQUATIONS=    1209
 UBUDSV SAVING "      ZETASRF  1" ON UNIT 55 AT TIME STEP629, STRESS PERIOD    1

 HEAD WILL BE SAVED ON UNIT   51 AT END OF TIME STEP  629, STRESS PERIOD    1
 
 SOLVING FOR HEAD 
                                                   Max.-Head-Change                         Max.-Flux-Residual
  Residual-Control   Outer-Iter.   Inner-Iter.     Column Row Layer    Maximum-Head-Change  Column Row Layer    Maximum-Flux-Residual          L2-NORM 
          0                 1           1            30   48     1       0.9416096005E-03      28   48    1         0.5351003824E+00      0.2690805404E+01
          0                 2           1            29   45     2       0.7399864544E-04      26   49    1         0.1686019895E-01      0.8690137716E-01
          0                 3           1            29   44     1       0.3948965938E-04      30   47    1         0.3420704085E-02      0.2809859593E-01
          0                 4           1            29   41     2       0.2235386517E-04      28   49    1         0.1826186829E-02      0.1863223858E-01
          0                 5           1            29   39     2       0.2004191218E-04      30   47    1         0.1282632967E-02      0.1575482859E-01
          0                 6           1            29   37     2       0.1544531045E-04      28   49    1         0.1080471856E-02      0.1405557135E-01
          0                 7           1            29   35     2       0.1472874236E-04      30   47    1         0.9249446281E-03      0.1258311046E-01
          0                 8           1            30   34     2       0.1235779565E-04      28   49    1         0.7704428717E-03      0.1136867641E-01
          0                 9           1            30   34     2       0.1147281743E-04      30   47    1         0.7215751430E-03      0.1022383921E-01
          0                10           1            29   33     2       0.9981799745E-05      27   48    1         0.5845941562E-03      0.9249617307E-02

    ------------------------------------------------
       NWT REQUIRED           10 OUTER ITERATIONS 
       AND A TOTAL OF         10 INNER ITERATIONS.
    ------------------------------------------------

 OUTPUT CONTROL FOR STRESS PERIOD    1   TIME STEP  630
    SAVE HEAD FOR ALL LAYERS
 SOLVING FOR ZETA FOR LAYER     1 ZONE     2

     608 UPPER PART EQS.       597 LOWER PART EQS.    BAND WIDTH + 1 =   30
 STRESS PERIOD=  1 TIMESTEP=630 LAYER=  1 ZONE=  2 ACTIVE CELLS= 1205 NUMBER OF EQUATIONS=    1205
 SOLVING FOR ZETA FOR LAYER     2 ZONE     2

     605 UPPER PART EQS.       604 LOWER PART EQS.    BAND WIDTH + 1 =   32
 STRESS PERIOD=  1 TIMESTEP=630 LAYER=  2 ZONE=  2 ACTIVE CELLS= 1209 NUMBER OF EQUATIONS=    1209
 UBUDSV SAVING "      ZETASRF  1" ON UNIT 55 AT TIME STEP630, STRESS PERIOD    1

 HEAD WILL BE SAVED ON UNIT   51 AT END OF TIME STEP  630, STRESS PERIOD    1
 
 SOLVING FOR HEAD 
                                                   Max.-Head-Change                         Max.-Flux-Residual
  Residual-Control   Outer-Iter.   Inner-Iter.     Column Row Layer    Maximum-Head-Change  Column Row Layer    Maximum-Flux-Residual          L2-NORM 
          0                 1           1            48   32     1      -0.7847529673E-03      33   14    1        -0.4979114009E+00      0.2594818329E+01
          0                 2           1            44   33     1      -0.5218760958E-04      45   34    1        -0.1480202344E-01      0.7453638856E-01
          0                 3           1            43   31     2      -0.2672638428E-04      42   32    2        -0.2186261125E-02      0.1701723606E-01
          0                 4           1            44   33     1      -0.1005195328E-04      44   33    1        -0.1008151921E-02      0.8905419041E-02
          0                 5           1            16   29     1      -0.8095860082E-05      46   31    1        -0.6584999721E-03      0.6070808555E-02

    ------------------------------------------------
       NWT REQUIRED            5 OUTER ITERATIONS 
       AND A TOTAL OF          5 INNER ITERATIONS.
    ------------------------------------------------

 OUTPUT CONTROL FOR STRESS PERIOD    1   TIME STEP  631
    SAVE HEAD FOR ALL LAYERS
 SOLVING FOR ZETA FOR LAYER     1 ZONE     2

     595 UPPER PART EQS.       590 LOWER PART EQS.    BAND WIDTH + 1 =   26
 STRESS PERIOD=  1 TIMESTEP=631 LAYER=  1 ZONE=  2 ACTIVE CELLS= 1185 NUMBER OF EQUATIONS=    1185
 SOLVING FOR ZETA FOR LAYER     2 ZONE     2

     605 UPPER PART EQS.       604 LOWER PART EQS.    BAND WIDTH + 1 =   32
 STRESS PERIOD=  1 TIMESTEP=631 LAYER=  2 ZONE=  2 ACTIVE CELLS= 1209 NUMBER OF EQUATIONS=    1209
 UBUDSV SAVING "      ZETASRF  1" ON UNIT 55 AT TIME STEP631, STRESS PERIOD    1

 HEAD WILL BE SAVED ON UNIT   51 AT END OF TIME STEP  631, STRESS PERIOD    1
 
 SOLVING FOR HEAD 
                                                   Max.-Head-Change                         Max.-Flux-Residual
  Residual-Control   Outer-Iter.   Inner-Iter.     Column Row Layer    Maximum-Head-Change  Column Row Layer    Maximum-Flux-Residual          L2-NORM 
          0                 1           1            30   48     1      -0.8850404292E-03      29   13    1         0.5079873857E+00      0.3149069355E+01
          0                 2           1            45   34     1       0.4462415421E-04      28   49    1        -0.1524235696E-01      0.9004871218E-01
          0                 3           1            29   44     1      -0.2499881406E-04      30   47    1        -0.2313216080E-02      0.2203375947E-01
          0                 4           1            43   30     1       0.9478953818E-05      44   33    1         0.8996674713E-03      0.1032317977E-01

    ------------------------------------------------
       NWT REQUIRED            4 OUTER ITERATIONS 
       AND A TOTAL OF          4 INNER ITERATIONS.
    ------------------------------------------------

 OUTPUT CONTROL FOR STRESS PERIOD    1   TIME STEP  632
    SAVE HEAD FOR ALL LAYERS
 SOLVING FOR ZETA FOR LAYER     1 ZONE     2

     593 UPPER PART EQS.       583 LOWER PART EQS.    BAND WIDTH + 1 =   27
 STRESS PERIOD=  1 TIMESTEP=632 LAYER=  1 ZONE=  2 ACTIVE CELLS= 1176 NUMBER OF EQUATIONS=    1176
 SOLVING FOR ZETA FOR LAYER     2 ZONE     2

     603 UPPER PART EQS.       604 LOWER PART EQS.    BAND WIDTH + 1 =   32
 STRESS PERIOD=  1 TIMESTEP=632 LAYER=  2 ZONE=  2 ACTIVE CELLS= 1207 NUMBER OF EQUATIONS=    1207
 UBUDSV SAVING "      ZETASRF  1" ON UNIT 55 AT TIME STEP632, STRESS PERIOD    1

 HEAD WILL BE SAVED ON UNIT   51 AT END OF TIME STEP  632, STRESS PERIOD    1
 
 SOLVING FOR HEAD 
                                                   Max.-Head-Change                         Max.-Flux-Residual
  Residual-Control   Outer-Iter.   Inner-Iter.     Column Row Layer    Maximum-Head-Change  Column Row Layer    Maximum-Flux-Residual          L2-NORM 
          0                 1           1            30   48     1       0.8786143755E-03      34   48    1        -0.5427465554E+00      0.3305182408E+01
          0                 2           1            29   45     2       0.4412064231E-04      28   49    1         0.1557668129E-01      0.8318800110E-01
          0                 3           1            29   44     1       0.2462024941E-04      30   47    1         0.2345979910E-02      0.1752722616E-01
          0                 4           1            28   42     2       0.1023985673E-04      27   41    2         0.7239323969E-03      0.7982239691E-02
          0                 5           1            28   41     1       0.8529186332E-05      30   47    1         0.5651200150E-03      0.5510510366E-02

    ------------------------------------------------
       NWT REQUIRED            5 OUTER ITERATIONS 
       AND A TOTAL OF          5 INNER ITERATIONS.
    ------------------------------------------------

 OUTPUT CONTROL FOR STRESS PERIOD    1   TIME STEP  633
    SAVE HEAD FOR ALL LAYERS
 SOLVING FOR ZETA FOR LAYER     1 ZONE     2

     593 UPPER PART EQS.       596 LOWER PART EQS.    BAND WIDTH + 1 =   27
 STRESS PERIOD=  1 TIMESTEP=633 LAYER=  1 ZONE=  2 ACTIVE CELLS= 1189 NUMBER OF EQUATIONS=    1189
 SOLVING FOR ZETA FOR LAYER     2 ZONE     2

     604 UPPER PART EQS.       604 LOWER PART EQS.    BAND WIDTH + 1 =   32
 STRESS PERIOD=  1 TIMESTEP=633 LAYER=  2 ZONE=  2 ACTIVE CELLS= 1208 NUMBER OF EQUATIONS=    1208
 UBUDSV SAVING "      ZETASRF  1" ON UNIT 55 AT TIME STEP633, STRESS PERIOD    1

 HEAD WILL BE SAVED ON UNIT   51 AT END OF TIME STEP  633, STRESS PERIOD    1
 
 SOLVING FOR HEAD 
                                                   Max.-Head-Change                         Max.-Flux-Residual
  Residual-Control   Outer-Iter.   Inner-Iter.     Column Row Layer    Maximum-Head-Change  Column Row Layer    Maximum-Flux-Residual          L2-NORM 
          0                 1           1            13   32     1       0.7238331649E-03      28   49    1         0.5431942778E+00      0.3511882100E+01
          0                 2           1            45   34     1      -0.3508718626E-04      45   34    1        -0.1143504413E-01      0.7418263373E-01
          0                 3           1            43   31     2      -0.1594211461E-04      46   31    1        -0.1456616744E-02      0.1283656528E-01
          0                 4           1            44   33     1      -0.7501025993E-05      16   29    1        -0.7011684172E-03      0.6505257603E-02

    ------------------------------------------------
       NWT REQUIRED            4 OUTER ITERATIONS 
       AND A TOTAL OF          4 INNER ITERATIONS.
    ------------------------------------------------

 OUTPUT CONTROL FOR STRESS PERIOD    1   TIME STEP  634
    SAVE HEAD FOR ALL LAYERS
 SOLVING FOR ZETA FOR LAYER     1 ZONE     2

     590 UPPER PART EQS.       587 LOWER PART EQS.    BAND WIDTH + 1 =   23
 STRESS PERIOD=  1 TIMESTEP=634 LAYER=  1 ZONE=  2 ACTIVE CELLS= 1177 NUMBER OF EQUATIONS=    1177
 SOLVING FOR ZETA FOR LAYER     2 ZONE     2

     604 UPPER PART EQS.       604 LOWER PART EQS.    BAND WIDTH + 1 =   32
 STRESS PERIOD=  1 TIMESTEP=634 LAYER=  2 ZONE=  2 ACTIVE CELLS= 1208 NUMBER OF EQUATIONS=    1208
 UBUDSV SAVING "      ZETASRF  1" ON UNIT 55 AT TIME STEP634, STRESS PERIOD    1

 HEAD WILL BE SAVED ON UNIT   51 AT END OF TIME STEP  634, STRESS PERIOD    1
 
 SOLVING FOR HEAD 
                                                   Max.-Head-Change                         Max.-Flux-Residual
  Residual-Control   Outer-Iter.   Inner-Iter.     Column Row Layer    Maximum-Head-Change  Column Row Layer    Maximum-Flux-Residual          L2-NORM 
          0                 1           1            31   48     1      -0.8278804972E-03      28   48    1         0.5264762971E+00      0.3393066333E+01
          0                 2           1            45   34     1       0.4550703139E-04      28   49    1        -0.1464645562E-01      0.8695832431E-01
          0                 3           1            42   32     2       0.2791076043E-04      46   31    1         0.1701758846E-02      0.2167922802E-01
          0                 4           1            43   34     1       0.1134899737E-04      43   34    1         0.9820595160E-03      0.1088670232E-01
          0                 5           1            41   31     2       0.1185363696E-04      46   31    1         0.6420472606E-03      0.7748648982E-02
          0                 6           1            43   30     1       0.6762049297E-05      44   33    1         0.5085020693E-03      0.6275019073E-02

    ------------------------------------------------
       NWT REQUIRED            6 OUTER ITERATIONS 
       AND A TOTAL OF          6 INNER ITERATIONS.
    ------------------------------------------------

 OUTPUT CONTROL FOR STRESS PERIOD    1   TIME STEP  635
    SAVE HEAD FOR ALL LAYERS
 SOLVING FOR ZETA FOR LAYER     1 ZONE     2

     596 UPPER PART EQS.       587 LOWER PART EQS.    BAND WIDTH + 1 =   28
 STRESS PERIOD=  1 TIMESTEP=635 LAYER=  1 ZONE=  2 ACTIVE CELLS= 1183 NUMBER OF EQUATIONS=    1183
 SOLVING FOR ZETA FOR LAYER     2 ZONE     2

     601 UPPER PART EQS.       600 LOWER PART EQS.    BAND WIDTH + 1 =   32
 STRESS PERIOD=  1 TIMESTEP=635 LAYER=  2 ZONE=  2 ACTIVE CELLS= 1201 NUMBER OF EQUATIONS=    1201
 UBUDSV SAVING "      ZETASRF  1" ON UNIT 55 AT TIME STEP635, STRESS PERIOD    1

 HEAD WILL BE SAVED ON UNIT   51 AT END OF TIME STEP  635, STRESS PERIOD    1
 
 SOLVING FOR HEAD 
                                                   Max.-Head-Change                         Max.-Flux-Residual
  Residual-Control   Outer-Iter.   Inner-Iter.     Column Row Layer    Maximum-Head-Change  Column Row Layer    Maximum-Flux-Residual          L2-NORM 
          0                 1           1            30   48     1       0.8788843731E-03      29   48    1         0.4836891987E+00      0.2533661905E+01
          0                 2           1            31   45     2       0.6007019484E-04      28   49    1         0.1514062587E-01      0.7860319927E-01
          0                 3           1            29   44     1       0.3480721410E-04      30   47    1         0.2801676147E-02      0.2481325303E-01
          0                 4           1            29   41     2       0.1992259589E-04      28   49    1         0.1320242969E-02      0.1689052258E-01
          0                 5           1            30   38     2       0.1785491569E-04      33   48    1         0.1059053506E-02      0.1456253091E-01
          0                 6           1            29   37     2       0.1398041915E-04      35   46    1         0.8543688911E-03      0.1304537542E-01
          0                 7           1            30   34     2       0.1350554567E-04      32   47    1         0.7320966298E-03      0.1171196696E-01
          0                 8           1            29   33     2       0.1137929942E-04      35   46    1         0.6475531019E-03      0.1058422086E-01
          0                 9           1            30   33     1       0.1054165302E-04      32   47    1         0.5707156931E-03      0.9534027473E-02
          0                10           1            30   32     2       0.9310533742E-05      35   46    1         0.5003602240E-03      0.8624837345E-02

    ------------------------------------------------
       NWT REQUIRED           10 OUTER ITERATIONS 
       AND A TOTAL OF         10 INNER ITERATIONS.
    ------------------------------------------------

 OUTPUT CONTROL FOR STRESS PERIOD    1   TIME STEP  636
    SAVE HEAD FOR ALL LAYERS
 SOLVING FOR ZETA FOR LAYER     1 ZONE     2

     608 UPPER PART EQS.       597 LOWER PART EQS.    BAND WIDTH + 1 =   32
 STRESS PERIOD=  1 TIMESTEP=636 LAYER=  1 ZONE=  2 ACTIVE CELLS= 1205 NUMBER OF EQUATIONS=    1205
 SOLVING FOR ZETA FOR LAYER     2 ZONE     2

     605 UPPER PART EQS.       604 LOWER PART EQS.    BAND WIDTH + 1 =   32
 STRESS PERIOD=  1 TIMESTEP=636 LAYER=  2 ZONE=  2 ACTIVE CELLS= 1209 NUMBER OF EQUATIONS=    1209
 UBUDSV SAVING "      ZETASRF  1" ON UNIT 55 AT TIME STEP636, STRESS PERIOD    1

 HEAD WILL BE SAVED ON UNIT   51 AT END OF TIME STEP  636, STRESS PERIOD    1
 
 SOLVING FOR HEAD 
                                                   Max.-Head-Change                         Max.-Flux-Residual
  Residual-Control   Outer-Iter.   Inner-Iter.     Column Row Layer    Maximum-Head-Change  Column Row Layer    Maximum-Flux-Residual          L2-NORM 
          0                 1           1            48   32     1      -0.7753365836E-03      33   14    1        -0.4911802626E+00      0.2490705498E+01
          0                 2           1            44   33     1      -0.5191454862E-04      45   34    1        -0.1462174453E-01      0.7503827870E-01
          0                 3           1            43   31     2      -0.2649418202E-04      46   31    1        -0.2156112355E-02      0.1751893317E-01
          0                 4           1            18   32     2      -0.1042486178E-04      44   33    1        -0.1017680060E-02      0.9712819302E-02
          0                 5           1            16   29     1      -0.9538056799E-05      15   30    1        -0.7357275842E-03      0.7064126656E-02

    ------------------------------------------------
       NWT REQUIRED            5 OUTER ITERATIONS 
       AND A TOTAL OF          5 INNER ITERATIONS.
    ------------------------------------------------

 OUTPUT CONTROL FOR STRESS PERIOD    1   TIME STEP  637
    SAVE HEAD FOR ALL LAYERS
 SOLVING FOR ZETA FOR LAYER     1 ZONE     2

     592 UPPER PART EQS.       588 LOWER PART EQS.    BAND WIDTH + 1 =   25
 STRESS PERIOD=  1 TIMESTEP=637 LAYER=  1 ZONE=  2 ACTIVE CELLS= 1180 NUMBER OF EQUATIONS=    1180
 SOLVING FOR ZETA FOR LAYER     2 ZONE     2

     605 UPPER PART EQS.       604 LOWER PART EQS.    BAND WIDTH + 1 =   32
 STRESS PERIOD=  1 TIMESTEP=637 LAYER=  2 ZONE=  2 ACTIVE CELLS= 1209 NUMBER OF EQUATIONS=    1209
 UBUDSV SAVING "      ZETASRF  1" ON UNIT 55 AT TIME STEP637, STRESS PERIOD    1

 HEAD WILL BE SAVED ON UNIT   51 AT END OF TIME STEP  637, STRESS PERIOD    1
 
 SOLVING FOR HEAD 
                                                   Max.-Head-Change                         Max.-Flux-Residual
  Residual-Control   Outer-Iter.   Inner-Iter.     Column Row Layer    Maximum-Head-Change  Column Row Layer    Maximum-Flux-Residual          L2-NORM 
          0                 1           1            30   48     1      -0.8768832831E-03      34   48    1        -0.5368853594E+00      0.3613337916E+01
          0                 2           1            31   45     2      -0.4881585142E-04      28   49    1        -0.1572881900E-01      0.8536797079E-01
          0                 3           1            30   45     1      -0.2821273535E-04      30   47    1        -0.2646352104E-02      0.1944258785E-01
          0                 4           1            30   42     2      -0.1301875052E-04      32   13    1        -0.9653678371E-03      0.1004685943E-01
          0                 5           1            30   45     1      -0.9601142366E-05      30   47    1        -0.7793493849E-03      0.7357160461E-02

    ------------------------------------------------
       NWT REQUIRED            5 OUTER ITERATIONS 
       AND A TOTAL OF          5 INNER ITERATIONS.
    ------------------------------------------------

 OUTPUT CONTROL FOR STRESS PERIOD    1   TIME STEP  638
    SAVE HEAD FOR ALL LAYERS
 SOLVING FOR ZETA FOR LAYER     1 ZONE     2

     589 UPPER PART EQS.       587 LOWER PART EQS.    BAND WIDTH + 1 =   22
 STRESS PERIOD=  1 TIMESTEP=638 LAYER=  1 ZONE=  2 ACTIVE CELLS= 1176 NUMBER OF EQUATIONS=    1176
 SOLVING FOR ZETA FOR LAYER     2 ZONE     2

     605 UPPER PART EQS.       602 LOWER PART EQS.    BAND WIDTH + 1 =   32
 STRESS PERIOD=  1 TIMESTEP=638 LAYER=  2 ZONE=  2 ACTIVE CELLS= 1207 NUMBER OF EQUATIONS=    1207
 UBUDSV SAVING "      ZETASRF  1" ON UNIT 55 AT TIME STEP638, STRESS PERIOD    1

 HEAD WILL BE SAVED ON UNIT   51 AT END OF TIME STEP  638, STRESS PERIOD    1
 
 SOLVING FOR HEAD 
                                                   Max.-Head-Change                         Max.-Flux-Residual
  Residual-Control   Outer-Iter.   Inner-Iter.     Column Row Layer    Maximum-Head-Change  Column Row Layer    Maximum-Flux-Residual          L2-NORM 
          0                 1           1            31   48     1       0.8541409529E-03      28   14    1        -0.5361259626E+00      0.3383727189E+01
          0                 2           1            31   45     2       0.5126500791E-04      28   49    1         0.1645725446E-01      0.9089787961E-01
          0                 3           1            32   44     2       0.2582065834E-04      31   46    1         0.2471437464E-02      0.2266008116E-01
          0                 4           1            30   42     2       0.1207763945E-04      45   32    1         0.9043210772E-03      0.1252355933E-01
          0                 5           1            33   39     2       0.1177820129E-04      16   33    1         0.6290304101E-03      0.1000753130E-01
          0                 6           1            37   35     2       0.9145492512E-05      39   33    2         0.5404129545E-03      0.8889377998E-02

    ------------------------------------------------
       NWT REQUIRED            6 OUTER ITERATIONS 
       AND A TOTAL OF          6 INNER ITERATIONS.
    ------------------------------------------------

 OUTPUT CONTROL FOR STRESS PERIOD    1   TIME STEP  639
    SAVE HEAD FOR ALL LAYERS
 SOLVING FOR ZETA FOR LAYER     1 ZONE     2

     595 UPPER PART EQS.       593 LOWER PART EQS.    BAND WIDTH + 1 =   23
 STRESS PERIOD=  1 TIMESTEP=639 LAYER=  1 ZONE=  2 ACTIVE CELLS= 1188 NUMBER OF EQUATIONS=    1188
 SOLVING FOR ZETA FOR LAYER     2 ZONE     2

     609 UPPER PART EQS.       604 LOWER PART EQS.    BAND WIDTH + 1 =   32
 STRESS PERIOD=  1 TIMESTEP=639 LAYER=  2 ZONE=  2 ACTIVE CELLS= 1213 NUMBER OF EQUATIONS=    1213
 UBUDSV SAVING "      ZETASRF  1" ON UNIT 55 AT TIME STEP639, STRESS PERIOD    1

 HEAD WILL BE SAVED ON UNIT   51 AT END OF TIME STEP  639, STRESS PERIOD    1
 
 SOLVING FOR HEAD 
                                                   Max.-Head-Change                         Max.-Flux-Residual
  Residual-Control   Outer-Iter.   Inner-Iter.     Column Row Layer    Maximum-Head-Change  Column Row Layer    Maximum-Flux-Residual          L2-NORM 
          0                 1           1            48   32     1      -0.7704229714E-03      28   48    1         0.5201947447E+00      0.2830449138E+01
          0                 2           1            44   33     1      -0.4980158165E-04      45   34    1        -0.1447062412E-01      0.7799691503E-01
          0                 3           1            43   31     2      -0.2297099420E-04      46   31    1        -0.2123832863E-02      0.1839201152E-01
          0                 4           1            44   33     1      -0.8302102601E-05      44   33    1        -0.9470135689E-03      0.8854671310E-02

    ------------------------------------------------
       NWT REQUIRED            4 OUTER ITERATIONS 
       AND A TOTAL OF          4 INNER ITERATIONS.
    ------------------------------------------------

 OUTPUT CONTROL FOR STRESS PERIOD    1   TIME STEP  640
    SAVE HEAD FOR ALL LAYERS
 SOLVING FOR ZETA FOR LAYER     1 ZONE     2

     596 UPPER PART EQS.       578 LOWER PART EQS.    BAND WIDTH + 1 =   35
 STRESS PERIOD=  1 TIMESTEP=640 LAYER=  1 ZONE=  2 ACTIVE CELLS= 1174 NUMBER OF EQUATIONS=    1174
 SOLVING FOR ZETA FOR LAYER     2 ZONE     2

     605 UPPER PART EQS.       602 LOWER PART EQS.    BAND WIDTH + 1 =   32
 STRESS PERIOD=  1 TIMESTEP=640 LAYER=  2 ZONE=  2 ACTIVE CELLS= 1207 NUMBER OF EQUATIONS=    1207
 UBUDSV SAVING "      ZETASRF  1" ON UNIT 55 AT TIME STEP640, STRESS PERIOD    1

 HEAD WILL BE SAVED ON UNIT   51 AT END OF TIME STEP  640, STRESS PERIOD    1
 
 SOLVING FOR HEAD 
                                                   Max.-Head-Change                         Max.-Flux-Residual
  Residual-Control   Outer-Iter.   Inner-Iter.     Column Row Layer    Maximum-Head-Change  Column Row Layer    Maximum-Flux-Residual          L2-NORM 
          0                 1           1            30   48     1      -0.8669540451E-03      29   14    1        -0.4874135282E+00      0.3470847173E+01
          0                 2           1            45   34     1       0.4296519003E-04      28   49    1        -0.1400890147E-01      0.8826108347E-01
          0                 3           1            42   32     2       0.2430237212E-04      30   47    1        -0.2121547074E-02      0.2106259851E-01
          0                 4           1            43   30     1       0.1071102949E-04      44   33    1         0.9044049822E-03      0.1038777287E-01
          0                 5           1            41   31     2       0.9578894309E-05      46   31    1         0.6382593735E-03      0.6997258076E-02

    ------------------------------------------------
       NWT REQUIRED            5 OUTER ITERATIONS 
       AND A TOTAL OF          5 INNER ITERATIONS.
    ------------------------------------------------

 OUTPUT CONTROL FOR STRESS PERIOD    1   TIME STEP  641
    SAVE HEAD FOR ALL LAYERS
 SOLVING FOR ZETA FOR LAYER     1 ZONE     2

     596 UPPER PART EQS.       586 LOWER PART EQS.    BAND WIDTH + 1 =   28
 STRESS PERIOD=  1 TIMESTEP=641 LAYER=  1 ZONE=  2 ACTIVE CELLS= 1182 NUMBER OF EQUATIONS=    1182
 SOLVING FOR ZETA FOR LAYER     2 ZONE     2

     609 UPPER PART EQS.       604 LOWER PART EQS.    BAND WIDTH + 1 =   32
 STRESS PERIOD=  1 TIMESTEP=641 LAYER=  2 ZONE=  2 ACTIVE CELLS= 1213 NUMBER OF EQUATIONS=    1213
 UBUDSV SAVING "      ZETASRF  1" ON UNIT 55 AT TIME STEP641, STRESS PERIOD    1

 HEAD WILL BE SAVED ON UNIT   51 AT END OF TIME STEP  641, STRESS PERIOD    1
 
 SOLVING FOR HEAD 
                                                   Max.-Head-Change                         Max.-Flux-Residual
  Residual-Control   Outer-Iter.   Inner-Iter.     Column Row Layer    Maximum-Head-Change  Column Row Layer    Maximum-Flux-Residual          L2-NORM 
          0                 1           1            30   48     1       0.8671960049E-03      48   28    1        -0.5279778222E+00      0.3015735955E+01
          0                 2           1            31   45     2       0.5598625445E-04      28   49    1         0.1521883942E-01      0.7848238273E-01
          0                 3           1            30   45     1       0.3176214625E-04      30   47    1         0.2734372146E-02      0.2003945571E-01
          0                 4           1            30   42     2       0.1533969747E-04      35   46    1         0.1064865726E-02      0.1142507106E-01
          0                 5           1            30   41     1       0.1282505748E-04      30   47    1         0.8158061767E-03      0.9054711602E-02
          0                 6           1            30   40     2       0.8986940569E-05      35   46    1         0.5930266729E-03      0.7865173172E-02

    ------------------------------------------------
       NWT REQUIRED            6 OUTER ITERATIONS 
       AND A TOTAL OF          6 INNER ITERATIONS.
    ------------------------------------------------

 OUTPUT CONTROL FOR STRESS PERIOD    1   TIME STEP  642
    SAVE HEAD FOR ALL LAYERS
 SOLVING FOR ZETA FOR LAYER     1 ZONE     2

     602 UPPER PART EQS.       596 LOWER PART EQS.    BAND WIDTH + 1 =   27
 STRESS PERIOD=  1 TIMESTEP=642 LAYER=  1 ZONE=  2 ACTIVE CELLS= 1198 NUMBER OF EQUATIONS=    1198
 SOLVING FOR ZETA FOR LAYER     2 ZONE     2

     613 UPPER PART EQS.       604 LOWER PART EQS.    BAND WIDTH + 1 =   32
 STRESS PERIOD=  1 TIMESTEP=642 LAYER=  2 ZONE=  2 ACTIVE CELLS= 1217 NUMBER OF EQUATIONS=    1217
 UBUDSV SAVING "      ZETASRF  1" ON UNIT 55 AT TIME STEP642, STRESS PERIOD    1

 HEAD WILL BE SAVED ON UNIT   51 AT END OF TIME STEP  642, STRESS PERIOD    1
 
 SOLVING FOR HEAD 
                                                   Max.-Head-Change                         Max.-Flux-Residual
  Residual-Control   Outer-Iter.   Inner-Iter.     Column Row Layer    Maximum-Head-Change  Column Row Layer    Maximum-Flux-Residual          L2-NORM 
          0                 1           1            34   48     1      -0.7721398964E-03      34   49    1         0.5350476381E+00      0.3200732286E+01
          0                 2           1            45   34     1      -0.3273065093E-04      30   15    1        -0.1222358697E-01      0.7489536452E-01
          0                 3           1            43   31     2      -0.1294821343E-04      46   31    1        -0.1342438943E-02      0.1310501377E-01
          0                 4           1            44   33     1      -0.7360318583E-05      44   33    1        -0.6483226761E-03      0.6769529255E-02

    ------------------------------------------------
       NWT REQUIRED            4 OUTER ITERATIONS 
       AND A TOTAL OF          4 INNER ITERATIONS.
    ------------------------------------------------

 OUTPUT CONTROL FOR STRESS PERIOD    1   TIME STEP  643
    SAVE HEAD FOR ALL LAYERS
 SOLVING FOR ZETA FOR LAYER     1 ZONE     2

     589 UPPER PART EQS.       584 LOWER PART EQS.    BAND WIDTH + 1 =   24
 STRESS PERIOD=  1 TIMESTEP=643 LAYER=  1 ZONE=  2 ACTIVE CELLS= 1173 NUMBER OF EQUATIONS=    1173
 SOLVING FOR ZETA FOR LAYER     2 ZONE     2

     613 UPPER PART EQS.       604 LOWER PART EQS.    BAND WIDTH + 1 =   32
 STRESS PERIOD=  1 TIMESTEP=643 LAYER=  2 ZONE=  2 ACTIVE CELLS= 1217 NUMBER OF EQUATIONS=    1217
 UBUDSV SAVING "      ZETASRF  1" ON UNIT 55 AT TIME STEP643, STRESS PERIOD    1

 HEAD WILL BE SAVED ON UNIT   51 AT END OF TIME STEP  643, STRESS PERIOD    1
 
 SOLVING FOR HEAD 
                                                   Max.-Head-Change                         Max.-Flux-Residual
  Residual-Control   Outer-Iter.   Inner-Iter.     Column Row Layer    Maximum-Head-Change  Column Row Layer    Maximum-Flux-Residual          L2-NORM 
          0                 1           1            30   48     1      -0.9163921634E-03      28   49    1         0.5341440566E+00      0.3449510834E+01
          0                 2           1            29   45     2      -0.4884379959E-04      26   49    1        -0.1662629351E-01      0.9507259024E-01
          0                 3           1            28   45     1      -0.2645697133E-04      30   47    1        -0.2518709737E-02      0.2093669179E-01
          0                 4           1            43   30     1       0.9142933471E-05      28   49    1        -0.1032539598E-02      0.1032505426E-01

    ------------------------------------------------
       NWT REQUIRED            4 OUTER ITERATIONS 
       AND A TOTAL OF          4 INNER ITERATIONS.
    ------------------------------------------------

 OUTPUT CONTROL FOR STRESS PERIOD    1   TIME STEP  644
    SAVE HEAD FOR ALL LAYERS
 SOLVING FOR ZETA FOR LAYER     1 ZONE     2

     592 UPPER PART EQS.       587 LOWER PART EQS.    BAND WIDTH + 1 =   25
 STRESS PERIOD=  1 TIMESTEP=644 LAYER=  1 ZONE=  2 ACTIVE CELLS= 1179 NUMBER OF EQUATIONS=    1179
 SOLVING FOR ZETA FOR LAYER     2 ZONE     2

     613 UPPER PART EQS.       604 LOWER PART EQS.    BAND WIDTH + 1 =   32
 STRESS PERIOD=  1 TIMESTEP=644 LAYER=  2 ZONE=  2 ACTIVE CELLS= 1217 NUMBER OF EQUATIONS=    1217
 UBUDSV SAVING "      ZETASRF  1" ON UNIT 55 AT TIME STEP644, STRESS PERIOD    1

 HEAD WILL BE SAVED ON UNIT   51 AT END OF TIME STEP  644, STRESS PERIOD    1
 
 SOLVING FOR HEAD 
                                                   Max.-Head-Change                         Max.-Flux-Residual
  Residual-Control   Outer-Iter.   Inner-Iter.     Column Row Layer    Maximum-Head-Change  Column Row Layer    Maximum-Flux-Residual          L2-NORM 
          0                 1           1            30   48     1       0.9093179546E-03      28   48    1         0.5146862138E+00      0.2630494458E+01
          0                 2           1            31   45     2       0.6464698610E-04      26   49    1         0.1629435638E-01      0.8425883868E-01
          0                 3           1            29   44     1       0.3241957676E-04      30   47    1         0.3202729273E-02      0.2367626605E-01
          0                 4           1            29   41     2       0.1825745086E-04      28   49    1         0.1299573944E-02      0.1532754737E-01
          0                 5           1            31   39     2       0.1585243184E-04      30   47    1         0.1038295946E-02      0.1298144889E-01
          0                 6           1            30   36     2       0.1293418117E-04      28   49    1         0.7752958040E-03      0.1163018300E-01
          0                 7           1            30   34     2       0.1184318842E-04      30   47    1         0.7350076912E-03      0.1044726091E-01
          0                 8           1            30   34     2       0.1045030713E-04      28   49    1         0.5579555336E-03      0.9451925727E-02
          0                 9           1            31   33     2       0.9279524957E-05      30   47    1         0.5686052064E-03      0.8524854283E-02

    ------------------------------------------------
       NWT REQUIRED            9 OUTER ITERATIONS 
       AND A TOTAL OF          9 INNER ITERATIONS.
    ------------------------------------------------

 OUTPUT CONTROL FOR STRESS PERIOD    1   TIME STEP  645
    SAVE HEAD FOR ALL LAYERS
 SOLVING FOR ZETA FOR LAYER     1 ZONE     2

     597 UPPER PART EQS.       591 LOWER PART EQS.    BAND WIDTH + 1 =   27
 STRESS PERIOD=  1 TIMESTEP=645 LAYER=  1 ZONE=  2 ACTIVE CELLS= 1188 NUMBER OF EQUATIONS=    1188
 SOLVING FOR ZETA FOR LAYER     2 ZONE     2

     613 UPPER PART EQS.       604 LOWER PART EQS.    BAND WIDTH + 1 =   32
 STRESS PERIOD=  1 TIMESTEP=645 LAYER=  2 ZONE=  2 ACTIVE CELLS= 1217 NUMBER OF EQUATIONS=    1217
 UBUDSV SAVING "      ZETASRF  1" ON UNIT 55 AT TIME STEP645, STRESS PERIOD    1

 HEAD WILL BE SAVED ON UNIT   51 AT END OF TIME STEP  645, STRESS PERIOD    1
 
 SOLVING FOR HEAD 
                                                   Max.-Head-Change                         Max.-Flux-Residual
  Residual-Control   Outer-Iter.   Inner-Iter.     Column Row Layer    Maximum-Head-Change  Column Row Layer    Maximum-Flux-Residual          L2-NORM 
          0                 1           1            48   33     1      -0.9145687574E-03      48   34    1        -0.5239882357E+00      0.2999238198E+01
          0                 2           1            44   31     1      -0.7265699542E-04      45   34    1        -0.1774113748E-01      0.9798957423E-01
          0                 3           1            43   31     2      -0.3833433710E-04      16   33    1        -0.3023416796E-02      0.2481354597E-01
          0                 4           1            43   30     1      -0.1425615561E-04      44   33    1        -0.1380523077E-02      0.1261992265E-01
          0                 5           1            42   32     2      -0.1224490763E-04      16   33    1        -0.8954096124E-03      0.8496788743E-02
          0                 6           1            44   33     1      -0.7516957289E-05      44   33    1        -0.6506247319E-03      0.6550210024E-02

    ------------------------------------------------
       NWT REQUIRED            6 OUTER ITERATIONS 
       AND A TOTAL OF          6 INNER ITERATIONS.
    ------------------------------------------------

 OUTPUT CONTROL FOR STRESS PERIOD    1   TIME STEP  646
    SAVE HEAD FOR ALL LAYERS
 SOLVING FOR ZETA FOR LAYER     1 ZONE     2

     592 UPPER PART EQS.       584 LOWER PART EQS.    BAND WIDTH + 1 =   28
 STRESS PERIOD=  1 TIMESTEP=646 LAYER=  1 ZONE=  2 ACTIVE CELLS= 1176 NUMBER OF EQUATIONS=    1176
 SOLVING FOR ZETA FOR LAYER     2 ZONE     2

     613 UPPER PART EQS.       604 LOWER PART EQS.    BAND WIDTH + 1 =   32
 STRESS PERIOD=  1 TIMESTEP=646 LAYER=  2 ZONE=  2 ACTIVE CELLS= 1217 NUMBER OF EQUATIONS=    1217
 UBUDSV SAVING "      ZETASRF  1" ON UNIT 55 AT TIME STEP646, STRESS PERIOD    1

 HEAD WILL BE SAVED ON UNIT   51 AT END OF TIME STEP  646, STRESS PERIOD    1
 
 SOLVING FOR HEAD 
                                                   Max.-Head-Change                         Max.-Flux-Residual
  Residual-Control   Outer-Iter.   Inner-Iter.     Column Row Layer    Maximum-Head-Change  Column Row Layer    Maximum-Flux-Residual          L2-NORM 
          0                 1           1            29   14     1      -0.8987959529E-03      34   48    1        -0.5244592794E+00      0.3668579529E+01
          0                 2           1            44   31     1       0.6375721578E-04      45   30    1         0.1645490370E-01      0.1126561447E+00
          0                 3           1            42   32     2       0.3534027130E-04      16   33    1         0.2987877840E-02      0.3059757539E-01
          0                 4           1            43   30     1       0.1395312631E-04      32   13    1        -0.1368691915E-02      0.1474520101E-01
          0                 5           1            42   32     2       0.1132707618E-04      16   33    1         0.8831344090E-03      0.8966651306E-02
          0                 6           1            44   31     1       0.5872097841E-05      45   31    2         0.5504017453E-03      0.5780838584E-02

    ------------------------------------------------
       NWT REQUIRED            6 OUTER ITERATIONS 
       AND A TOTAL OF          6 INNER ITERATIONS.
    ------------------------------------------------

 OUTPUT CONTROL FOR STRESS PERIOD    1   TIME STEP  647
    SAVE HEAD FOR ALL LAYERS
 SOLVING FOR ZETA FOR LAYER     1 ZONE     2

     593 UPPER PART EQS.       593 LOWER PART EQS.    BAND WIDTH + 1 =   23
 STRESS PERIOD=  1 TIMESTEP=647 LAYER=  1 ZONE=  2 ACTIVE CELLS= 1186 NUMBER OF EQUATIONS=    1186
 SOLVING FOR ZETA FOR LAYER     2 ZONE     2

     613 UPPER PART EQS.       604 LOWER PART EQS.    BAND WIDTH + 1 =   32
 STRESS PERIOD=  1 TIMESTEP=647 LAYER=  2 ZONE=  2 ACTIVE CELLS= 1217 NUMBER OF EQUATIONS=    1217
 UBUDSV SAVING "      ZETASRF  1" ON UNIT 55 AT TIME STEP647, STRESS PERIOD    1

 HEAD WILL BE SAVED ON UNIT   51 AT END OF TIME STEP  647, STRESS PERIOD    1
 
 SOLVING FOR HEAD 
                                                   Max.-Head-Change                         Max.-Flux-Residual
  Residual-Control   Outer-Iter.   Inner-Iter.     Column Row Layer    Maximum-Head-Change  Column Row Layer    Maximum-Flux-Residual          L2-NORM 
          0                 1           1            29   14     1       0.8667382332E-03      28   48    1        -0.5237674085E+00      0.2548789912E+01
          0                 2           1            31   45     2       0.5643721266E-04      28   49    1         0.1539149287E-01      0.8448230428E-01
          0                 3           1            30   19     1       0.2905207746E-04      31   46    1         0.2438398769E-02      0.2545112272E-01
          0                 4           1            28   21     1       0.1713660513E-04      35   46    1         0.1210863955E-02      0.1613793369E-01
          0                 5           1            29   24     1       0.1551418796E-04      33   48    1         0.8986687600E-03      0.1354850768E-01
          0                 6           1            29   28     1       0.1250392313E-04      25   16    1         0.7764939149E-03      0.1208138804E-01
          0                 7           1            30   30     2       0.1223324629E-04      32   47    1         0.5906617253E-03      0.1082227165E-01
          0                 8           1            29   31     2       0.1050617224E-04      25   16    1         0.6113445761E-03      0.9788257799E-02
          0                 9           1            30   31     1       0.9836110043E-05      32   47    1         0.4430617629E-03      0.8804886824E-02

    ------------------------------------------------
       NWT REQUIRED            9 OUTER ITERATIONS 
       AND A TOTAL OF          9 INNER ITERATIONS.
    ------------------------------------------------

 OUTPUT CONTROL FOR STRESS PERIOD    1   TIME STEP  648
    SAVE HEAD FOR ALL LAYERS
 SOLVING FOR ZETA FOR LAYER     1 ZONE     2

     607 UPPER PART EQS.       593 LOWER PART EQS.    BAND WIDTH + 1 =   35
 STRESS PERIOD=  1 TIMESTEP=648 LAYER=  1 ZONE=  2 ACTIVE CELLS= 1200 NUMBER OF EQUATIONS=    1200
 SOLVING FOR ZETA FOR LAYER     2 ZONE     2

     613 UPPER PART EQS.       604 LOWER PART EQS.    BAND WIDTH + 1 =   32
 STRESS PERIOD=  1 TIMESTEP=648 LAYER=  2 ZONE=  2 ACTIVE CELLS= 1217 NUMBER OF EQUATIONS=    1217
 UBUDSV SAVING "      ZETASRF  1" ON UNIT 55 AT TIME STEP648, STRESS PERIOD    1

 HEAD WILL BE SAVED ON UNIT   51 AT END OF TIME STEP  648, STRESS PERIOD    1
 
 SOLVING FOR HEAD 
                                                   Max.-Head-Change                         Max.-Flux-Residual
  Residual-Control   Outer-Iter.   Inner-Iter.     Column Row Layer    Maximum-Head-Change  Column Row Layer    Maximum-Flux-Residual          L2-NORM 
          0                 1           1            48   32     1      -0.7586129132E-03      28   48    1         0.5101012421E+00      0.2729327214E+01
          0                 2           1            44   33     1      -0.5219925161E-04      45   34    1        -0.1432721723E-01      0.8115213486E-01
          0                 3           1            43   31     2      -0.2815057380E-04      46   31    1        -0.2155156803E-02      0.1945406870E-01
          0                 4           1            44   33     1      -0.1187369165E-04      44   33    1        -0.1101123707E-02      0.1096963046E-01
          0                 5           1            42   32     2      -0.1015963223E-04      15   30    1        -0.7428597221E-03      0.8086852702E-02
          0                 6           1            44   33     1      -0.6951306927E-05      44   33    1        -0.5756762150E-03      0.6701659404E-02

    ------------------------------------------------
       NWT REQUIRED            6 OUTER ITERATIONS 
       AND A TOTAL OF          6 INNER ITERATIONS.
    ------------------------------------------------

 OUTPUT CONTROL FOR STRESS PERIOD    1   TIME STEP  649
    SAVE HEAD FOR ALL LAYERS
 SOLVING FOR ZETA FOR LAYER     1 ZONE     2

     586 UPPER PART EQS.       574 LOWER PART EQS.    BAND WIDTH + 1 =   28
 STRESS PERIOD=  1 TIMESTEP=649 LAYER=  1 ZONE=  2 ACTIVE CELLS= 1160 NUMBER OF EQUATIONS=    1160
 SOLVING FOR ZETA FOR LAYER     2 ZONE     2

     609 UPPER PART EQS.       600 LOWER PART EQS.    BAND WIDTH + 1 =   32
 STRESS PERIOD=  1 TIMESTEP=649 LAYER=  2 ZONE=  2 ACTIVE CELLS= 1209 NUMBER OF EQUATIONS=    1209
 UBUDSV SAVING "      ZETASRF  1" ON UNIT 55 AT TIME STEP649, STRESS PERIOD    1

 HEAD WILL BE SAVED ON UNIT   51 AT END OF TIME STEP  649, STRESS PERIOD    1
 
 SOLVING FOR HEAD 
                                                   Max.-Head-Change                         Max.-Flux-Residual
  Residual-Control   Outer-Iter.   Inner-Iter.     Column Row Layer    Maximum-Head-Change  Column Row Layer    Maximum-Flux-Residual          L2-NORM 
          0                 1           1            30   48     1      -0.8553621281E-03      14   28    1        -0.5210154490E+00      0.3810431781E+01
          0                 2           1            27   16     1      -0.4526532343E-04      28   49    1        -0.1508188000E-01      0.9119932696E-01
          0                 3           1            30   45     1      -0.2011116710E-04      30   15    1        -0.2330179636E-02      0.1902804714E-01
          0                 4           1            28   17     1      -0.7306828953E-05      32   13    1        -0.9243127175E-03      0.8045641846E-02

    ------------------------------------------------
       NWT REQUIRED            4 OUTER ITERATIONS 
       AND A TOTAL OF          4 INNER ITERATIONS.
    ------------------------------------------------

 OUTPUT CONTROL FOR STRESS PERIOD    1   TIME STEP  650
    SAVE HEAD FOR ALL LAYERS
 SOLVING FOR ZETA FOR LAYER     1 ZONE     2

     596 UPPER PART EQS.       587 LOWER PART EQS.    BAND WIDTH + 1 =   27
 STRESS PERIOD=  1 TIMESTEP=650 LAYER=  1 ZONE=  2 ACTIVE CELLS= 1183 NUMBER OF EQUATIONS=    1183
 SOLVING FOR ZETA FOR LAYER     2 ZONE     2

     609 UPPER PART EQS.       604 LOWER PART EQS.    BAND WIDTH + 1 =   32
 STRESS PERIOD=  1 TIMESTEP=650 LAYER=  2 ZONE=  2 ACTIVE CELLS= 1213 NUMBER OF EQUATIONS=    1213
 UBUDSV SAVING "      ZETASRF  1" ON UNIT 55 AT TIME STEP650, STRESS PERIOD    1

 HEAD WILL BE SAVED ON UNIT   51 AT END OF TIME STEP  650, STRESS PERIOD    1
 
 SOLVING FOR HEAD 
                                                   Max.-Head-Change                         Max.-Flux-Residual
  Residual-Control   Outer-Iter.   Inner-Iter.     Column Row Layer    Maximum-Head-Change  Column Row Layer    Maximum-Flux-Residual          L2-NORM 
          0                 1           1            30   48     1       0.8476670873E-03      28   14    1        -0.5212154076E+00      0.2986750734E+01
          0                 2           1            45   32     1       0.4541640533E-04      28   49    1         0.1479143503E-01      0.8746625291E-01
          0                 3           1            42   32     2       0.2411647712E-04      30   47    1         0.2303093329E-02      0.2202981080E-01
          0                 4           1            20   33     1       0.1233490189E-04      45   32    1         0.8808991221E-03      0.1323069050E-01
          0                 5           1            23   33     2       0.1311889552E-04      47   30    1         0.6630944190E-03      0.1101677564E-01
          0                 6           1            27   33     2       0.9649998217E-05      30   38    2         0.6054411550E-03      0.9867846105E-02

    ------------------------------------------------
       NWT REQUIRED            6 OUTER ITERATIONS 
       AND A TOTAL OF          6 INNER ITERATIONS.
    ------------------------------------------------

 OUTPUT CONTROL FOR STRESS PERIOD    1   TIME STEP  651
    SAVE HEAD FOR ALL LAYERS
 SOLVING FOR ZETA FOR LAYER     1 ZONE     2

     593 UPPER PART EQS.       591 LOWER PART EQS.    BAND WIDTH + 1 =   24
 STRESS PERIOD=  1 TIMESTEP=651 LAYER=  1 ZONE=  2 ACTIVE CELLS= 1184 NUMBER OF EQUATIONS=    1184
 SOLVING FOR ZETA FOR LAYER     2 ZONE     2

     605 UPPER PART EQS.       604 LOWER PART EQS.    BAND WIDTH + 1 =   32
 STRESS PERIOD=  1 TIMESTEP=651 LAYER=  2 ZONE=  2 ACTIVE CELLS= 1209 NUMBER OF EQUATIONS=    1209
 UBUDSV SAVING "      ZETASRF  1" ON UNIT 55 AT TIME STEP651, STRESS PERIOD    1

 HEAD WILL BE SAVED ON UNIT   51 AT END OF TIME STEP  651, STRESS PERIOD    1
 
 SOLVING FOR HEAD 
                                                   Max.-Head-Change                         Max.-Flux-Residual
  Residual-Control   Outer-Iter.   Inner-Iter.     Column Row Layer    Maximum-Head-Change  Column Row Layer    Maximum-Flux-Residual          L2-NORM 
          0                 1           1            48   32     1      -0.7537110872E-03      28   49    1         0.5200495451E+00      0.3226831105E+01
          0                 2           1            44   33     1      -0.4978190888E-04      45   34    1        -0.1419004846E-01      0.7625586612E-01
          0                 3           1            43   31     2      -0.2359748919E-04      46   31    1        -0.2099026762E-02      0.1762611397E-01
          0                 4           1            44   33     1      -0.8287817708E-05      44   33    1        -0.9482426916E-03      0.8284742250E-02

    ------------------------------------------------
       NWT REQUIRED            4 OUTER ITERATIONS 
       AND A TOTAL OF          4 INNER ITERATIONS.
    ------------------------------------------------

 OUTPUT CONTROL FOR STRESS PERIOD    1   TIME STEP  652
    SAVE HEAD FOR ALL LAYERS
 SOLVING FOR ZETA FOR LAYER     1 ZONE     2

     596 UPPER PART EQS.       584 LOWER PART EQS.    BAND WIDTH + 1 =   34
 STRESS PERIOD=  1 TIMESTEP=652 LAYER=  1 ZONE=  2 ACTIVE CELLS= 1180 NUMBER OF EQUATIONS=    1180
 SOLVING FOR ZETA FOR LAYER     2 ZONE     2

     609 UPPER PART EQS.       604 LOWER PART EQS.    BAND WIDTH + 1 =   32
 STRESS PERIOD=  1 TIMESTEP=652 LAYER=  2 ZONE=  2 ACTIVE CELLS= 1213 NUMBER OF EQUATIONS=    1213
 UBUDSV SAVING "      ZETASRF  1" ON UNIT 55 AT TIME STEP652, STRESS PERIOD    1

 HEAD WILL BE SAVED ON UNIT   51 AT END OF TIME STEP  652, STRESS PERIOD    1
 
 SOLVING FOR HEAD 
                                                   Max.-Head-Change                         Max.-Flux-Residual
  Residual-Control   Outer-Iter.   Inner-Iter.     Column Row Layer    Maximum-Head-Change  Column Row Layer    Maximum-Flux-Residual          L2-NORM 
          0                 1           1            30   14     1      -0.8473374551E-03      28   48    1         0.5062582333E+00      0.3247915025E+01
          0                 2           1            27   16     1      -0.5117702979E-04      28   49    1        -0.1401276223E-01      0.8771155249E-01
          0                 3           1            42   32     2       0.2180136359E-04      30   15    1        -0.2377597635E-02      0.2052567791E-01
          0                 4           1            43   30     1       0.9045120059E-05      26   15    1        -0.1004680583E-02      0.9769548962E-02

    ------------------------------------------------
       NWT REQUIRED            4 OUTER ITERATIONS 
       AND A TOTAL OF          4 INNER ITERATIONS.
    ------------------------------------------------

 OUTPUT CONTROL FOR STRESS PERIOD    1   TIME STEP  653
    SAVE HEAD FOR ALL LAYERS
 SOLVING FOR ZETA FOR LAYER     1 ZONE     2

     589 UPPER PART EQS.       592 LOWER PART EQS.    BAND WIDTH + 1 =   26
 STRESS PERIOD=  1 TIMESTEP=653 LAYER=  1 ZONE=  2 ACTIVE CELLS= 1181 NUMBER OF EQUATIONS=    1181
 SOLVING FOR ZETA FOR LAYER     2 ZONE     2

     608 UPPER PART EQS.       604 LOWER PART EQS.    BAND WIDTH + 1 =   32
 STRESS PERIOD=  1 TIMESTEP=653 LAYER=  2 ZONE=  2 ACTIVE CELLS= 1212 NUMBER OF EQUATIONS=    1212
 UBUDSV SAVING "      ZETASRF  1" ON UNIT 55 AT TIME STEP653, STRESS PERIOD    1

 HEAD WILL BE SAVED ON UNIT   51 AT END OF TIME STEP  653, STRESS PERIOD    1
 
 SOLVING FOR HEAD 
                                                   Max.-Head-Change                         Max.-Flux-Residual
  Residual-Control   Outer-Iter.   Inner-Iter.     Column Row Layer    Maximum-Head-Change  Column Row Layer    Maximum-Flux-Residual          L2-NORM 
          0                 1           1            30   14     1       0.8620556042E-03      49   34    1         0.5183830213E+00      0.2956228235E+01
          0                 2           1            27   16     1       0.6181464439E-04      28   49    1         0.1437525223E-01      0.9381015577E-01
          0                 3           1            29   44     1       0.3176305064E-04      30   47    1         0.2573187314E-02      0.2609753362E-01
          0                 4           1            29   41     2       0.1625387541E-04      26   15    1         0.1349413747E-02      0.1518773681E-01
          0                 5           1            28   41     1       0.1430699332E-04      30   15    1         0.9499468297E-03      0.1215890167E-01
          0                 6           1            29   39     2       0.1081671178E-04      26   15    1         0.6890837272E-03      0.1064979045E-01
          0                 7           1            30   34     2       0.9963517704E-05      30   15    1         0.6573642476E-03      0.9512250564E-02

    ------------------------------------------------
       NWT REQUIRED            7 OUTER ITERATIONS 
       AND A TOTAL OF          7 INNER ITERATIONS.
    ------------------------------------------------

 OUTPUT CONTROL FOR STRESS PERIOD    1   TIME STEP  654
    SAVE HEAD FOR ALL LAYERS
 SOLVING FOR ZETA FOR LAYER     1 ZONE     2

     604 UPPER PART EQS.       598 LOWER PART EQS.    BAND WIDTH + 1 =   27
 STRESS PERIOD=  1 TIMESTEP=654 LAYER=  1 ZONE=  2 ACTIVE CELLS= 1202 NUMBER OF EQUATIONS=    1202
 SOLVING FOR ZETA FOR LAYER     2 ZONE     2

     612 UPPER PART EQS.       604 LOWER PART EQS.    BAND WIDTH + 1 =   32
 STRESS PERIOD=  1 TIMESTEP=654 LAYER=  2 ZONE=  2 ACTIVE CELLS= 1216 NUMBER OF EQUATIONS=    1216
 UBUDSV SAVING "      ZETASRF  1" ON UNIT 55 AT TIME STEP654, STRESS PERIOD    1

 HEAD WILL BE SAVED ON UNIT   51 AT END OF TIME STEP  654, STRESS PERIOD    1
 
 SOLVING FOR HEAD 
                                                   Max.-Head-Change                         Max.-Flux-Residual
  Residual-Control   Outer-Iter.   Inner-Iter.     Column Row Layer    Maximum-Head-Change  Column Row Layer    Maximum-Flux-Residual          L2-NORM 
          0                 1           1            34   13     1       0.7546978110E-03      28   13    1         0.5184822004E+00      0.3011833220E+01
          0                 2           1            31   16     1      -0.3680799414E-04      37   48    1         0.1178318342E-01      0.7418448748E-01
          0                 3           1            33   16     1      -0.1610964201E-04      33   16    1        -0.1497125395E-02      0.1408952664E-01
          0                 4           1            31   18     1      -0.7781826693E-05      44   33    1        -0.6353547406E-03      0.7178181897E-02

    ------------------------------------------------
       NWT REQUIRED            4 OUTER ITERATIONS 
       AND A TOTAL OF          4 INNER ITERATIONS.
    ------------------------------------------------

 OUTPUT CONTROL FOR STRESS PERIOD    1   TIME STEP  655
    SAVE HEAD FOR ALL LAYERS
 SOLVING FOR ZETA FOR LAYER     1 ZONE     2

     589 UPPER PART EQS.       582 LOWER PART EQS.    BAND WIDTH + 1 =   26
 STRESS PERIOD=  1 TIMESTEP=655 LAYER=  1 ZONE=  2 ACTIVE CELLS= 1171 NUMBER OF EQUATIONS=    1171
 SOLVING FOR ZETA FOR LAYER     2 ZONE     2

     613 UPPER PART EQS.       602 LOWER PART EQS.    BAND WIDTH + 1 =   33
 STRESS PERIOD=  1 TIMESTEP=655 LAYER=  2 ZONE=  2 ACTIVE CELLS= 1215 NUMBER OF EQUATIONS=    1215
 UBUDSV SAVING "      ZETASRF  1" ON UNIT 55 AT TIME STEP655, STRESS PERIOD    1

 HEAD WILL BE SAVED ON UNIT   51 AT END OF TIME STEP  655, STRESS PERIOD    1
 
 SOLVING FOR HEAD 
                                                   Max.-Head-Change                         Max.-Flux-Residual
  Residual-Control   Outer-Iter.   Inner-Iter.     Column Row Layer    Maximum-Head-Change  Column Row Layer    Maximum-Flux-Residual          L2-NORM 
          0                 1           1            30   48     1      -0.8971918636E-03      28   48    1        -0.5165496102E+00      0.3432133919E+01
          0                 2           1            29   45     2      -0.4917567838E-04      26   49    1        -0.1625371359E-01      0.9837273288E-01
          0                 3           1            28   45     1      -0.2724624895E-04      30   47    1        -0.2469690815E-02      0.2261185969E-01
          0                 4           1            43   34     1       0.1014129771E-04      28   49    1        -0.1074967544E-02      0.1084604154E-01
          0                 5           1            42   30     2       0.9288957793E-05      30   47    1        -0.6841142717E-03      0.6892956431E-02

    ------------------------------------------------
       NWT REQUIRED            5 OUTER ITERATIONS 
       AND A TOTAL OF          5 INNER ITERATIONS.
    ------------------------------------------------

 OUTPUT CONTROL FOR STRESS PERIOD    1   TIME STEP  656
    SAVE HEAD FOR ALL LAYERS
 SOLVING FOR ZETA FOR LAYER     1 ZONE     2

     597 UPPER PART EQS.       588 LOWER PART EQS.    BAND WIDTH + 1 =   28
 STRESS PERIOD=  1 TIMESTEP=656 LAYER=  1 ZONE=  2 ACTIVE CELLS= 1185 NUMBER OF EQUATIONS=    1185
 SOLVING FOR ZETA FOR LAYER     2 ZONE     2

     613 UPPER PART EQS.       604 LOWER PART EQS.    BAND WIDTH + 1 =   32
 STRESS PERIOD=  1 TIMESTEP=656 LAYER=  2 ZONE=  2 ACTIVE CELLS= 1217 NUMBER OF EQUATIONS=    1217
 UBUDSV SAVING "      ZETASRF  1" ON UNIT 55 AT TIME STEP656, STRESS PERIOD    1

 HEAD WILL BE SAVED ON UNIT   51 AT END OF TIME STEP  656, STRESS PERIOD    1
 
 SOLVING FOR HEAD 
                                                   Max.-Head-Change                         Max.-Flux-Residual
  Residual-Control   Outer-Iter.   Inner-Iter.     Column Row Layer    Maximum-Head-Change  Column Row Layer    Maximum-Flux-Residual          L2-NORM 
          0                 1           1            30   48     1       0.8912586554E-03      28   48    1         0.5030725207E+00      0.2459191441E+01
          0                 2           1            31   45     2       0.6652684144E-04      26   49    1         0.1598538368E-01      0.9422924842E-01
          0                 3           1            29   44     1       0.3419334558E-04      30   47    1         0.3176229612E-02      0.2615154584E-01
          0                 4           1            29   41     2       0.1768980902E-04      28   49    1         0.1353979107E-02      0.1543785525E-01
          0                 5           1            29   40     1       0.1521031736E-04      30   47    1         0.9521868505E-03      0.1258204617E-01
          0                 6           1            29   37     2       0.1151244299E-04      28   49    1         0.7187162273E-03      0.1112543942E-01
          0                 7           1            29   33     2       0.1133190532E-04      30   47    1         0.6239541250E-03      0.9940007595E-02
          0                 8           1            29   31     2       0.9419741226E-05      28   49    1         0.4983786895E-03      0.9002506343E-02

    ------------------------------------------------
       NWT REQUIRED            8 OUTER ITERATIONS 
       AND A TOTAL OF          8 INNER ITERATIONS.
    ------------------------------------------------

 OUTPUT CONTROL FOR STRESS PERIOD    1   TIME STEP  657
    SAVE HEAD FOR ALL LAYERS
 SOLVING FOR ZETA FOR LAYER     1 ZONE     2

     598 UPPER PART EQS.       592 LOWER PART EQS.    BAND WIDTH + 1 =   25
 STRESS PERIOD=  1 TIMESTEP=657 LAYER=  1 ZONE=  2 ACTIVE CELLS= 1190 NUMBER OF EQUATIONS=    1190
 SOLVING FOR ZETA FOR LAYER     2 ZONE     2

     613 UPPER PART EQS.       604 LOWER PART EQS.    BAND WIDTH + 1 =   32
 STRESS PERIOD=  1 TIMESTEP=657 LAYER=  2 ZONE=  2 ACTIVE CELLS= 1217 NUMBER OF EQUATIONS=    1217
 UBUDSV SAVING "      ZETASRF  1" ON UNIT 55 AT TIME STEP657, STRESS PERIOD    1

 HEAD WILL BE SAVED ON UNIT   51 AT END OF TIME STEP  657, STRESS PERIOD    1
 
 SOLVING FOR HEAD 
                                                   Max.-Head-Change                         Max.-Flux-Residual
  Residual-Control   Outer-Iter.   Inner-Iter.     Column Row Layer    Maximum-Head-Change  Column Row Layer    Maximum-Flux-Residual          L2-NORM 
          0                 1           1            48   33     1      -0.8959238193E-03      48   28    1        -0.5139921760E+00      0.2944032953E+01
          0                 2           1            44   31     1      -0.6992675159E-04      45   34    1        -0.1735283123E-01      0.9421171934E-01
          0                 3           1            43   31     2      -0.3532649471E-04      16   33    1        -0.2856248695E-02      0.2262723916E-01
          0                 4           1            43   30     1      -0.1333586704E-04      44   33    1        -0.1260434783E-02      0.1136572051E-01
          0                 5           1            16   33     1      -0.1082419569E-04      16   33    1        -0.8365483081E-03      0.7694165855E-02
          0                 6           1            44   33     1      -0.6737294112E-05      44   33    1        -0.5790021769E-03      0.5943646800E-02

    ------------------------------------------------
       NWT REQUIRED            6 OUTER ITERATIONS 
       AND A TOTAL OF          6 INNER ITERATIONS.
    ------------------------------------------------

 OUTPUT CONTROL FOR STRESS PERIOD    1   TIME STEP  658
    SAVE HEAD FOR ALL LAYERS
 SOLVING FOR ZETA FOR LAYER     1 ZONE     2

     588 UPPER PART EQS.       584 LOWER PART EQS.    BAND WIDTH + 1 =   28
 STRESS PERIOD=  1 TIMESTEP=658 LAYER=  1 ZONE=  2 ACTIVE CELLS= 1172 NUMBER OF EQUATIONS=    1172
 SOLVING FOR ZETA FOR LAYER     2 ZONE     2

     613 UPPER PART EQS.       602 LOWER PART EQS.    BAND WIDTH + 1 =   33
 STRESS PERIOD=  1 TIMESTEP=658 LAYER=  2 ZONE=  2 ACTIVE CELLS= 1215 NUMBER OF EQUATIONS=    1215
 UBUDSV SAVING "      ZETASRF  1" ON UNIT 55 AT TIME STEP658, STRESS PERIOD    1

 HEAD WILL BE SAVED ON UNIT   51 AT END OF TIME STEP  658, STRESS PERIOD    1
 
 SOLVING FOR HEAD 
                                                   Max.-Head-Change                         Max.-Flux-Residual
  Residual-Control   Outer-Iter.   Inner-Iter.     Column Row Layer    Maximum-Head-Change  Column Row Layer    Maximum-Flux-Residual          L2-NORM 
          0                 1           1            29   14     1      -0.9244991337E-03      34   48    1        -0.5146954734E+00      0.3724606586E+01
          0                 2           1            27   16     1      -0.6950768917E-04      45   30    1         0.1610205450E-01      0.1158005516E+00
          0                 3           1            31   18     1      -0.3555510637E-04      30   15    1        -0.3091605612E-02      0.3178031626E-01
          0                 4           1            43   30     1       0.1393199667E-04      32   13    1        -0.1659304767E-02      0.1552977712E-01
          0                 5           1            30   15     1      -0.1182396953E-04      30   15    1        -0.1083040370E-02      0.9502914962E-02
          0                 6           1            27   16     1      -0.5902836962E-05      32   13    1        -0.6282476036E-03      0.6146310300E-02

    ------------------------------------------------
       NWT REQUIRED            6 OUTER ITERATIONS 
       AND A TOTAL OF          6 INNER ITERATIONS.
    ------------------------------------------------

 OUTPUT CONTROL FOR STRESS PERIOD    1   TIME STEP  659
    SAVE HEAD FOR ALL LAYERS
 SOLVING FOR ZETA FOR LAYER     1 ZONE     2

     592 UPPER PART EQS.       586 LOWER PART EQS.    BAND WIDTH + 1 =   25
 STRESS PERIOD=  1 TIMESTEP=659 LAYER=  1 ZONE=  2 ACTIVE CELLS= 1178 NUMBER OF EQUATIONS=    1178
 SOLVING FOR ZETA FOR LAYER     2 ZONE     2

     610 UPPER PART EQS.       604 LOWER PART EQS.    BAND WIDTH + 1 =   32
 STRESS PERIOD=  1 TIMESTEP=659 LAYER=  2 ZONE=  2 ACTIVE CELLS= 1214 NUMBER OF EQUATIONS=    1214
 UBUDSV SAVING "      ZETASRF  1" ON UNIT 55 AT TIME STEP659, STRESS PERIOD    1

 HEAD WILL BE SAVED ON UNIT   51 AT END OF TIME STEP  659, STRESS PERIOD    1
 
 SOLVING FOR HEAD 
                                                   Max.-Head-Change                         Max.-Flux-Residual
  Residual-Control   Outer-Iter.   Inner-Iter.     Column Row Layer    Maximum-Head-Change  Column Row Layer    Maximum-Flux-Residual          L2-NORM 
          0                 1           1            29   14     1       0.9325806140E-03      28   48    1        -0.5139466539E+00      0.2981852596E+01
          0                 2           1            28   17     1       0.7745275403E-04      28   49    1         0.1530429186E-01      0.9508431159E-01
          0                 3           1            31   18     1       0.3838624467E-04      31   18    1         0.2823034484E-02      0.2742201841E-01
          0                 4           1            29   20     1       0.2115928463E-04      32   13    1         0.1478228694E-02      0.1688825741E-01
          0                 5           1            30   22     2       0.1759110943E-04      30   15    1         0.1058293059E-02      0.1397995097E-01
          0                 6           1            30   23     1       0.1385467192E-04      27   16    1         0.8044436398E-03      0.1234514132E-01
          0                 7           1            31   26     1       0.1246223702E-04      30   15    1         0.7797955151E-03      0.1105832147E-01
          0                 8           1            31   28     1       0.1102293101E-04      27   16    1         0.5887049154E-03      0.9973180136E-02
          0                 9           1            31   29     2       0.9874378146E-05      30   15    1         0.6165589969E-03      0.8987089796E-02

    ------------------------------------------------
       NWT REQUIRED            9 OUTER ITERATIONS 
       AND A TOTAL OF          9 INNER ITERATIONS.
    ------------------------------------------------

 OUTPUT CONTROL FOR STRESS PERIOD    1   TIME STEP  660
    SAVE HEAD FOR ALL LAYERS
 SOLVING FOR ZETA FOR LAYER     1 ZONE     2

     604 UPPER PART EQS.       593 LOWER PART EQS.    BAND WIDTH + 1 =   29
 STRESS PERIOD=  1 TIMESTEP=660 LAYER=  1 ZONE=  2 ACTIVE CELLS= 1197 NUMBER OF EQUATIONS=    1197
 SOLVING FOR ZETA FOR LAYER     2 ZONE     2

     612 UPPER PART EQS.       604 LOWER PART EQS.    BAND WIDTH + 1 =   32
 STRESS PERIOD=  1 TIMESTEP=660 LAYER=  2 ZONE=  2 ACTIVE CELLS= 1216 NUMBER OF EQUATIONS=    1216
 UBUDSV SAVING "      ZETASRF  1" ON UNIT 55 AT TIME STEP660, STRESS PERIOD    1

 HEAD WILL BE SAVED ON UNIT   51 AT END OF TIME STEP  660, STRESS PERIOD    1
 
 SOLVING FOR HEAD 
                                                   Max.-Head-Change                         Max.-Flux-Residual
  Residual-Control   Outer-Iter.   Inner-Iter.     Column Row Layer    Maximum-Head-Change  Column Row Layer    Maximum-Flux-Residual          L2-NORM 
          0                 1           1            48   32     1      -0.7431120339E-03      28   48    1         0.4999059975E+00      0.2711758274E+01
          0                 2           1            44   33     1      -0.5127682441E-04      45   34    1        -0.1404109551E-01      0.7843983352E-01
          0                 3           1            43   31     2      -0.2736616142E-04      46   31    1        -0.2111746267E-02      0.1854830977E-01
          0                 4           1            44   33     1      -0.1150079836E-04      44   33    1        -0.1080551663E-02      0.9976295973E-02
          0                 5           1            42   32     2      -0.9891422294E-05      47   30    1        -0.6615602243E-03      0.7168139626E-02

    ------------------------------------------------
       NWT REQUIRED            5 OUTER ITERATIONS 
       AND A TOTAL OF          5 INNER ITERATIONS.
    ------------------------------------------------

 OUTPUT CONTROL FOR STRESS PERIOD    1   TIME STEP  661
    SAVE HEAD FOR ALL LAYERS
 SOLVING FOR ZETA FOR LAYER     1 ZONE     2

     588 UPPER PART EQS.       581 LOWER PART EQS.    BAND WIDTH + 1 =   26
 STRESS PERIOD=  1 TIMESTEP=661 LAYER=  1 ZONE=  2 ACTIVE CELLS= 1169 NUMBER OF EQUATIONS=    1169
 SOLVING FOR ZETA FOR LAYER     2 ZONE     2

     611 UPPER PART EQS.       604 LOWER PART EQS.    BAND WIDTH + 1 =   32
 STRESS PERIOD=  1 TIMESTEP=661 LAYER=  2 ZONE=  2 ACTIVE CELLS= 1215 NUMBER OF EQUATIONS=    1215
 UBUDSV SAVING "      ZETASRF  1" ON UNIT 55 AT TIME STEP661, STRESS PERIOD    1

 HEAD WILL BE SAVED ON UNIT   51 AT END OF TIME STEP  661, STRESS PERIOD    1
 
 SOLVING FOR HEAD 
                                                   Max.-Head-Change                         Max.-Flux-Residual
  Residual-Control   Outer-Iter.   Inner-Iter.     Column Row Layer    Maximum-Head-Change  Column Row Layer    Maximum-Flux-Residual          L2-NORM 
          0                 1           1            30   14     1      -0.8395262353E-03      14   28    1        -0.5116459710E+00      0.3543415864E+01
          0                 2           1            27   16     1      -0.4921446886E-04      28   49    1        -0.1471239263E-01      0.8885049907E-01
          0                 3           1            30   17     1      -0.2163998392E-04      30   15    1        -0.2450002817E-02      0.1925428637E-01
          0                 4           1            28   19     1      -0.9020447406E-05      32   13    1        -0.9647063313E-03      0.8694847368E-02

    ------------------------------------------------
       NWT REQUIRED            4 OUTER ITERATIONS 
       AND A TOTAL OF          4 INNER ITERATIONS.
    ------------------------------------------------

 OUTPUT CONTROL FOR STRESS PERIOD    1   TIME STEP  662
    SAVE HEAD FOR ALL LAYERS
 SOLVING FOR ZETA FOR LAYER     1 ZONE     2

     596 UPPER PART EQS.       586 LOWER PART EQS.    BAND WIDTH + 1 =   29
 STRESS PERIOD=  1 TIMESTEP=662 LAYER=  1 ZONE=  2 ACTIVE CELLS= 1182 NUMBER OF EQUATIONS=    1182
 SOLVING FOR ZETA FOR LAYER     2 ZONE     2

     613 UPPER PART EQS.       604 LOWER PART EQS.    BAND WIDTH + 1 =   32
 STRESS PERIOD=  1 TIMESTEP=662 LAYER=  2 ZONE=  2 ACTIVE CELLS= 1217 NUMBER OF EQUATIONS=    1217
 UBUDSV SAVING "      ZETASRF  1" ON UNIT 55 AT TIME STEP662, STRESS PERIOD    1

 HEAD WILL BE SAVED ON UNIT   51 AT END OF TIME STEP  662, STRESS PERIOD    1
 
 SOLVING FOR HEAD 
                                                   Max.-Head-Change                         Max.-Flux-Residual
  Residual-Control   Outer-Iter.   Inner-Iter.     Column Row Layer    Maximum-Head-Change  Column Row Layer    Maximum-Flux-Residual          L2-NORM 
          0                 1           1            30   48     1       0.8308462743E-03      34   13    1         0.5145313361E+00      0.2928604037E+01
          0                 2           1            45   32     1       0.4445792127E-04      28   49    1         0.1432768278E-01      0.8737676774E-01
          0                 3           1            29   44     1       0.2445197934E-04      30   47    1         0.2211657957E-02      0.2316596930E-01
          0                 4           1            27   41     2       0.1217343160E-04      45   32    1         0.9077116766E-03      0.1420281959E-01
          0                 5           1            24   36     2       0.1364318205E-04      47   30    1         0.7072578836E-03      0.1193139929E-01
          0                 6           1            29   35     2       0.9999455968E-05      35   30    1         0.6020429466E-03      0.1076017375E-01

    ------------------------------------------------
       NWT REQUIRED            6 OUTER ITERATIONS 
       AND A TOTAL OF          6 INNER ITERATIONS.
    ------------------------------------------------

 OUTPUT CONTROL FOR STRESS PERIOD    1   TIME STEP  663
    SAVE HEAD FOR ALL LAYERS
 SOLVING FOR ZETA FOR LAYER     1 ZONE     2

     601 UPPER PART EQS.       598 LOWER PART EQS.    BAND WIDTH + 1 =   24
 STRESS PERIOD=  1 TIMESTEP=663 LAYER=  1 ZONE=  2 ACTIVE CELLS= 1199 NUMBER OF EQUATIONS=    1199
 SOLVING FOR ZETA FOR LAYER     2 ZONE     2

     611 UPPER PART EQS.       604 LOWER PART EQS.    BAND WIDTH + 1 =   32
 STRESS PERIOD=  1 TIMESTEP=663 LAYER=  2 ZONE=  2 ACTIVE CELLS= 1215 NUMBER OF EQUATIONS=    1215
 UBUDSV SAVING "      ZETASRF  1" ON UNIT 55 AT TIME STEP663, STRESS PERIOD    1

 HEAD WILL BE SAVED ON UNIT   51 AT END OF TIME STEP  663, STRESS PERIOD    1
 
 SOLVING FOR HEAD 
                                                   Max.-Head-Change                         Max.-Flux-Residual
  Residual-Control   Outer-Iter.   Inner-Iter.     Column Row Layer    Maximum-Head-Change  Column Row Layer    Maximum-Flux-Residual          L2-NORM 
          0                 1           1            48   32     1      -0.7381336479E-03      28   49    1         0.5144349813E+00      0.2687759229E+01
          0                 2           1            44   33     1      -0.4822095430E-04      45   34    1        -0.1387515588E-01      0.7152684248E-01
          0                 3           1            43   31     2      -0.2274760693E-04      46   31    1        -0.1996340802E-02      0.1644803616E-01
          0                 4           1            44   33     1      -0.8387874685E-05      44   33    1        -0.9022249674E-03      0.8027141216E-02

    ------------------------------------------------
       NWT REQUIRED            4 OUTER ITERATIONS 
       AND A TOTAL OF          4 INNER ITERATIONS.
    ------------------------------------------------

 OUTPUT CONTROL FOR STRESS PERIOD    1   TIME STEP  664
    SAVE HEAD FOR ALL LAYERS
 SOLVING FOR ZETA FOR LAYER     1 ZONE     2

     597 UPPER PART EQS.       582 LOWER PART EQS.    BAND WIDTH + 1 =   36
 STRESS PERIOD=  1 TIMESTEP=664 LAYER=  1 ZONE=  2 ACTIVE CELLS= 1179 NUMBER OF EQUATIONS=    1179
 SOLVING FOR ZETA FOR LAYER     2 ZONE     2

     609 UPPER PART EQS.       604 LOWER PART EQS.    BAND WIDTH + 1 =   32
 STRESS PERIOD=  1 TIMESTEP=664 LAYER=  2 ZONE=  2 ACTIVE CELLS= 1213 NUMBER OF EQUATIONS=    1213
 UBUDSV SAVING "      ZETASRF  1" ON UNIT 55 AT TIME STEP664, STRESS PERIOD    1

 HEAD WILL BE SAVED ON UNIT   51 AT END OF TIME STEP  664, STRESS PERIOD    1
 
 SOLVING FOR HEAD 
                                                   Max.-Head-Change                         Max.-Flux-Residual
  Residual-Control   Outer-Iter.   Inner-Iter.     Column Row Layer    Maximum-Head-Change  Column Row Layer    Maximum-Flux-Residual          L2-NORM 
          0                 1           1            30   14     1      -0.8338610719E-03      28   48    1         0.4961670036E+00      0.3287862702E+01
          0                 2           1            27   16     1      -0.4212415503E-04      28   49    1        -0.1478800003E-01      0.8479215413E-01
          0                 3           1            31   18     1      -0.1937559151E-04      30   15    1        -0.2008373448E-02      0.1833109456E-01
          0                 4           1            20   32     2       0.7421012367E-05      32   13    1        -0.8160093406E-03      0.8754839476E-02

    ------------------------------------------------
       NWT REQUIRED            4 OUTER ITERATIONS 
       AND A TOTAL OF          4 INNER ITERATIONS.
    ------------------------------------------------

 OUTPUT CONTROL FOR STRESS PERIOD    1   TIME STEP  665
    SAVE HEAD FOR ALL LAYERS
 SOLVING FOR ZETA FOR LAYER     1 ZONE     2

     584 UPPER PART EQS.       592 LOWER PART EQS.    BAND WIDTH + 1 =   28
 STRESS PERIOD=  1 TIMESTEP=665 LAYER=  1 ZONE=  2 ACTIVE CELLS= 1176 NUMBER OF EQUATIONS=    1176
 SOLVING FOR ZETA FOR LAYER     2 ZONE     2

     613 UPPER PART EQS.       604 LOWER PART EQS.    BAND WIDTH + 1 =   32
 STRESS PERIOD=  1 TIMESTEP=665 LAYER=  2 ZONE=  2 ACTIVE CELLS= 1217 NUMBER OF EQUATIONS=    1217
 UBUDSV SAVING "      ZETASRF  1" ON UNIT 55 AT TIME STEP665, STRESS PERIOD    1

 HEAD WILL BE SAVED ON UNIT   51 AT END OF TIME STEP  665, STRESS PERIOD    1
 
 SOLVING FOR HEAD 
                                                   Max.-Head-Change                         Max.-Flux-Residual
  Residual-Control   Outer-Iter.   Inner-Iter.     Column Row Layer    Maximum-Head-Change  Column Row Layer    Maximum-Flux-Residual          L2-NORM 
          0                 1           1            30   14     1       0.8469453423E-03      13   28    1         0.5121206830E+00      0.2914626042E+01
          0                 2           1            28   17     1       0.5361397462E-04      28   49    1         0.1488016640E-01      0.9052402211E-01
          0                 3           1            33   43     2       0.2989190863E-04      30   47    1         0.2639872061E-02      0.2473445221E-01
          0                 4           1            33   42     1       0.1518290131E-04      35   46    1         0.1265046449E-02      0.1431557251E-01
          0                 5           1            33   41     2       0.1336329804E-04      30   15    1         0.8528947394E-03      0.1136678601E-01
          0                 6           1            33   40     1       0.1007022950E-04      35   46    1         0.6613767975E-03      0.9911156121E-02
          0                 7           1            32   36     2       0.9046916890E-05      30   15    1         0.5892656445E-03      0.8822430836E-02

    ------------------------------------------------
       NWT REQUIRED            7 OUTER ITERATIONS 
       AND A TOTAL OF          7 INNER ITERATIONS.
    ------------------------------------------------

 OUTPUT CONTROL FOR STRESS PERIOD    1   TIME STEP  666
    SAVE HEAD FOR ALL LAYERS
 SOLVING FOR ZETA FOR LAYER     1 ZONE     2

     601 UPPER PART EQS.       596 LOWER PART EQS.    BAND WIDTH + 1 =   25
 STRESS PERIOD=  1 TIMESTEP=666 LAYER=  1 ZONE=  2 ACTIVE CELLS= 1197 NUMBER OF EQUATIONS=    1197
 SOLVING FOR ZETA FOR LAYER     2 ZONE     2

     613 UPPER PART EQS.       600 LOWER PART EQS.    BAND WIDTH + 1 =   32
 STRESS PERIOD=  1 TIMESTEP=666 LAYER=  2 ZONE=  2 ACTIVE CELLS= 1213 NUMBER OF EQUATIONS=    1213
 UBUDSV SAVING "      ZETASRF  1" ON UNIT 55 AT TIME STEP666, STRESS PERIOD    1

 HEAD WILL BE SAVED ON UNIT   51 AT END OF TIME STEP  666, STRESS PERIOD    1
 
 SOLVING FOR HEAD 
                                                   Max.-Head-Change                         Max.-Flux-Residual
  Residual-Control   Outer-Iter.   Inner-Iter.     Column Row Layer    Maximum-Head-Change  Column Row Layer    Maximum-Flux-Residual          L2-NORM 
          0                 1           1            34   13     1       0.7459101024E-03      28   13    1         0.5129814297E+00      0.3093389341E+01
          0                 2           1            31   16     1      -0.3623743219E-04      37   12    1         0.1120279477E-01      0.7322392981E-01
          0                 3           1            33   16     1      -0.1539355903E-04      34   15    1        -0.1405910169E-02      0.1400712828E-01
          0                 4           1            34   18     2      -0.7449973630E-05      44   33    1        -0.6551152172E-03      0.6941204620E-02

    ------------------------------------------------
       NWT REQUIRED            4 OUTER ITERATIONS 
       AND A TOTAL OF          4 INNER ITERATIONS.
    ------------------------------------------------

 OUTPUT CONTROL FOR STRESS PERIOD    1   TIME STEP  667
    SAVE HEAD FOR ALL LAYERS
 SOLVING FOR ZETA FOR LAYER     1 ZONE     2

     590 UPPER PART EQS.       580 LOWER PART EQS.    BAND WIDTH + 1 =   29
 STRESS PERIOD=  1 TIMESTEP=667 LAYER=  1 ZONE=  2 ACTIVE CELLS= 1170 NUMBER OF EQUATIONS=    1170
 SOLVING FOR ZETA FOR LAYER     2 ZONE     2

     611 UPPER PART EQS.       604 LOWER PART EQS.    BAND WIDTH + 1 =   32
 STRESS PERIOD=  1 TIMESTEP=667 LAYER=  2 ZONE=  2 ACTIVE CELLS= 1215 NUMBER OF EQUATIONS=    1215
 UBUDSV SAVING "      ZETASRF  1" ON UNIT 55 AT TIME STEP667, STRESS PERIOD    1

 HEAD WILL BE SAVED ON UNIT   51 AT END OF TIME STEP  667, STRESS PERIOD    1
 
 SOLVING FOR HEAD 
                                                   Max.-Head-Change                         Max.-Flux-Residual
  Residual-Control   Outer-Iter.   Inner-Iter.     Column Row Layer    Maximum-Head-Change  Column Row Layer    Maximum-Flux-Residual          L2-NORM 
          0                 1           1            30   48     1      -0.8803491930E-03      28   49    1         0.5082771101E+00      0.3471719740E+01
          0                 2           1            29   45     2      -0.4668654494E-04      26   49    1        -0.1597745380E-01      0.9446429749E-01
          0                 3           1            28   45     1      -0.2475658208E-04      30   47    1        -0.2404106027E-02      0.2014989069E-01
          0                 4           1            19   31     2       0.8408179783E-05      28   49    1        -0.9124937479E-03      0.9571913200E-02

    ------------------------------------------------
       NWT REQUIRED            4 OUTER ITERATIONS 
       AND A TOTAL OF          4 INNER ITERATIONS.
    ------------------------------------------------

 OUTPUT CONTROL FOR STRESS PERIOD    1   TIME STEP  668
    SAVE HEAD FOR ALL LAYERS
 SOLVING FOR ZETA FOR LAYER     1 ZONE     2

     597 UPPER PART EQS.       592 LOWER PART EQS.    BAND WIDTH + 1 =   26
 STRESS PERIOD=  1 TIMESTEP=668 LAYER=  1 ZONE=  2 ACTIVE CELLS= 1189 NUMBER OF EQUATIONS=    1189
 SOLVING FOR ZETA FOR LAYER     2 ZONE     2

     613 UPPER PART EQS.       604 LOWER PART EQS.    BAND WIDTH + 1 =   32
 STRESS PERIOD=  1 TIMESTEP=668 LAYER=  2 ZONE=  2 ACTIVE CELLS= 1217 NUMBER OF EQUATIONS=    1217
 UBUDSV SAVING "      ZETASRF  1" ON UNIT 55 AT TIME STEP668, STRESS PERIOD    1

 HEAD WILL BE SAVED ON UNIT   51 AT END OF TIME STEP  668, STRESS PERIOD    1
 
 SOLVING FOR HEAD 
                                                   Max.-Head-Change                         Max.-Flux-Residual
  Residual-Control   Outer-Iter.   Inner-Iter.     Column Row Layer    Maximum-Head-Change  Column Row Layer    Maximum-Flux-Residual          L2-NORM 
          0                 1           1            30   48     1       0.8717176582E-03      28   48    1         0.4932754097E+00      0.2325475200E+01
          0                 2           1            31   45     2       0.6406995248E-04      26   49    1         0.1564908231E-01      0.9046752762E-01
          0                 3           1            29   44     1       0.3200240855E-04      30   47    1         0.3051884237E-02      0.2610108014E-01
          0                 4           1            30   42     2       0.1748937330E-04      28   49    1         0.1307537279E-02      0.1614370490E-01
          0                 5           1            32   40     2       0.1550456795E-04      30   47    1         0.9590327180E-03      0.1346287289E-01
          0                 6           1            31   35     2       0.1245567941E-04      28   49    1         0.7178596126E-03      0.1201227893E-01
          0                 7           1            31   33     2       0.1161410562E-04      30   15    1         0.6878859332E-03      0.1080075528E-01
          0                 8           1            30   32     2       0.1073132734E-04      35   46    1         0.5119913049E-03      0.9771949769E-02
          0                 9           1            31   31     2       0.9242802238E-05      30   15    1         0.5567238426E-03      0.8830563334E-02

    ------------------------------------------------
       NWT REQUIRED            9 OUTER ITERATIONS 
       AND A TOTAL OF          9 INNER ITERATIONS.
    ------------------------------------------------

 OUTPUT CONTROL FOR STRESS PERIOD    1   TIME STEP  669
    SAVE HEAD FOR ALL LAYERS
 SOLVING FOR ZETA FOR LAYER     1 ZONE     2

     600 UPPER PART EQS.       600 LOWER PART EQS.    BAND WIDTH + 1 =   23
 STRESS PERIOD=  1 TIMESTEP=669 LAYER=  1 ZONE=  2 ACTIVE CELLS= 1200 NUMBER OF EQUATIONS=    1200
 SOLVING FOR ZETA FOR LAYER     2 ZONE     2

     613 UPPER PART EQS.       604 LOWER PART EQS.    BAND WIDTH + 1 =   32
 STRESS PERIOD=  1 TIMESTEP=669 LAYER=  2 ZONE=  2 ACTIVE CELLS= 1217 NUMBER OF EQUATIONS=    1217
 UBUDSV SAVING "      ZETASRF  1" ON UNIT 55 AT TIME STEP669, STRESS PERIOD    1

 HEAD WILL BE SAVED ON UNIT   51 AT END OF TIME STEP  669, STRESS PERIOD    1
 
 SOLVING FOR HEAD 
                                                   Max.-Head-Change                         Max.-Flux-Residual
  Residual-Control   Outer-Iter.   Inner-Iter.     Column Row Layer    Maximum-Head-Change  Column Row Layer    Maximum-Flux-Residual          L2-NORM 
          0                 1           1            48   33     1      -0.8791527371E-03      49   28    1         0.5067358458E+00      0.2778753062E+01
          0                 2           1            44   31     1      -0.6838897036E-04      45   34    1        -0.1702358775E-01      0.9233370385E-01
          0                 3           1            43   31     2      -0.3488879305E-04      16   33    1        -0.2803394477E-02      0.2268718981E-01
          0                 4           1            18   32     2      -0.1426034938E-04      44   33    1        -0.1245760338E-02      0.1268194927E-01
          0                 5           1            16   33     1      -0.1304544726E-04      16   33    1        -0.9210526561E-03      0.9557399816E-02
          0                 6           1            19   30     1      -0.8189283226E-05      44   33    1        -0.6374785715E-03      0.7983446241E-02

    ------------------------------------------------
       NWT REQUIRED            6 OUTER ITERATIONS 
       AND A TOTAL OF          6 INNER ITERATIONS.
    ------------------------------------------------

 OUTPUT CONTROL FOR STRESS PERIOD    1   TIME STEP  670
    SAVE HEAD FOR ALL LAYERS
 SOLVING FOR ZETA FOR LAYER     1 ZONE     2

     592 UPPER PART EQS.       578 LOWER PART EQS.    BAND WIDTH + 1 =   32
 STRESS PERIOD=  1 TIMESTEP=670 LAYER=  1 ZONE=  2 ACTIVE CELLS= 1170 NUMBER OF EQUATIONS=    1170
 SOLVING FOR ZETA FOR LAYER     2 ZONE     2

     612 UPPER PART EQS.       604 LOWER PART EQS.    BAND WIDTH + 1 =   32
 STRESS PERIOD=  1 TIMESTEP=670 LAYER=  2 ZONE=  2 ACTIVE CELLS= 1216 NUMBER OF EQUATIONS=    1216
 UBUDSV SAVING "      ZETASRF  1" ON UNIT 55 AT TIME STEP670, STRESS PERIOD    1

 HEAD WILL BE SAVED ON UNIT   51 AT END OF TIME STEP  670, STRESS PERIOD    1
 
 SOLVING FOR HEAD 
                                                   Max.-Head-Change                         Max.-Flux-Residual
  Residual-Control   Outer-Iter.   Inner-Iter.     Column Row Layer    Maximum-Head-Change  Column Row Layer    Maximum-Flux-Residual          L2-NORM 
          0                 1           1            29   14     1      -0.9115651165E-03      28   13    1         0.5067136659E+00      0.3774024206E+01
          0                 2           1            44   31     1       0.6065997461E-04      26   49    1        -0.1580071213E-01      0.1189020785E+00
          0                 3           1            31   18     1      -0.3473128444E-04      30   47    1        -0.3143501818E-02      0.3192449795E-01
          0                 4           1            31   19     2      -0.1315651766E-04      32   13    1        -0.1529590343E-02      0.1570590033E-01
          0                 5           1            30   15     1      -0.1086205499E-04      30   15    1        -0.9936492897E-03      0.9600637514E-02
          0                 6           1            31   45     2      -0.5574480898E-05      32   13    1        -0.5934196146E-03      0.6241972077E-02

    ------------------------------------------------
       NWT REQUIRED            6 OUTER ITERATIONS 
       AND A TOTAL OF          6 INNER ITERATIONS.
    ------------------------------------------------

 OUTPUT CONTROL FOR STRESS PERIOD    1   TIME STEP  671
    SAVE HEAD FOR ALL LAYERS
 SOLVING FOR ZETA FOR LAYER     1 ZONE     2

     592 UPPER PART EQS.       591 LOWER PART EQS.    BAND WIDTH + 1 =   23
 STRESS PERIOD=  1 TIMESTEP=671 LAYER=  1 ZONE=  2 ACTIVE CELLS= 1183 NUMBER OF EQUATIONS=    1183
 SOLVING FOR ZETA FOR LAYER     2 ZONE     2

     613 UPPER PART EQS.       604 LOWER PART EQS.    BAND WIDTH + 1 =   32
 STRESS PERIOD=  1 TIMESTEP=671 LAYER=  2 ZONE=  2 ACTIVE CELLS= 1217 NUMBER OF EQUATIONS=    1217
 UBUDSV SAVING "      ZETASRF  1" ON UNIT 55 AT TIME STEP671, STRESS PERIOD    1

 HEAD WILL BE SAVED ON UNIT   51 AT END OF TIME STEP  671, STRESS PERIOD    1
 
 SOLVING FOR HEAD 
                                                   Max.-Head-Change                         Max.-Flux-Residual
  Residual-Control   Outer-Iter.   Inner-Iter.     Column Row Layer    Maximum-Head-Change  Column Row Layer    Maximum-Flux-Residual          L2-NORM 
          0                 1           1            29   14     1       0.9144031595E-03      34   48    1         0.4922716583E+00      0.2553569117E+01
          0                 2           1            31   45     2       0.7649049675E-04      26   49    1         0.1558819150E-01      0.1026731774E+00
          0                 3           1            31   18     1       0.3621075262E-04      30   47    1         0.3326644251E-02      0.2993727961E-01
          0                 4           1            30   42     2       0.2024094065E-04      28   49    1         0.1616182109E-02      0.1804644498E-01
          0                 5           1            31   41     2       0.1657914217E-04      30   47    1         0.1120447538E-02      0.1468513439E-01
          0                 6           1            30   23     1       0.1341432346E-04      28   49    1         0.8479334038E-03      0.1289765735E-01
          0                 7           1            30   30     2       0.1208633544E-04      30   47    1         0.7556423856E-03      0.1153804059E-01
          0                 8           1            30   30     2       0.1143063223E-04      28   49    1         0.5759031062E-03      0.1039632050E-01
          0                 9           1            30   31     1       0.9775352932E-05      30   15    1         0.5881401095E-03      0.9386820192E-02

    ------------------------------------------------
       NWT REQUIRED            9 OUTER ITERATIONS 
       AND A TOTAL OF          9 INNER ITERATIONS.
    ------------------------------------------------

 OUTPUT CONTROL FOR STRESS PERIOD    1   TIME STEP  672
    SAVE HEAD FOR ALL LAYERS
 SOLVING FOR ZETA FOR LAYER     1 ZONE     2

     600 UPPER PART EQS.       589 LOWER PART EQS.    BAND WIDTH + 1 =   33
 STRESS PERIOD=  1 TIMESTEP=672 LAYER=  1 ZONE=  2 ACTIVE CELLS= 1189 NUMBER OF EQUATIONS=    1189
 SOLVING FOR ZETA FOR LAYER     2 ZONE     2

     612 UPPER PART EQS.       604 LOWER PART EQS.    BAND WIDTH + 1 =   32
 STRESS PERIOD=  1 TIMESTEP=672 LAYER=  2 ZONE=  2 ACTIVE CELLS= 1216 NUMBER OF EQUATIONS=    1216
 UBUDSV SAVING "      ZETASRF  1" ON UNIT 55 AT TIME STEP672, STRESS PERIOD    1

 HEAD WILL BE SAVED ON UNIT   51 AT END OF TIME STEP  672, STRESS PERIOD    1
 
 SOLVING FOR HEAD 
                                                   Max.-Head-Change                         Max.-Flux-Residual
  Residual-Control   Outer-Iter.   Inner-Iter.     Column Row Layer    Maximum-Head-Change  Column Row Layer    Maximum-Flux-Residual          L2-NORM 
          0                 1           1            48   33     1      -0.8751491503E-03      14   28    1        -0.4972899847E+00      0.3086974669E+01
          0                 2           1            44   31     1      -0.6921291775E-04      45   34    1        -0.1698853386E-01      0.9365970620E-01
          0                 3           1            43   31     2      -0.3687926100E-04      16   33    1        -0.2838697199E-02      0.2385026630E-01
          0                 4           1            43   30     1      -0.1454834231E-04      44   33    1        -0.1313367928E-02      0.1394241948E-01
          0                 5           1            16   33     1      -0.1413510246E-04      47   30    1        -0.9694167478E-03      0.1077960842E-01
          0                 6           1            19   30     1      -0.8686950650E-05      44   33    1        -0.6914532819E-03      0.9220700245E-02

    ------------------------------------------------
       NWT REQUIRED            6 OUTER ITERATIONS 
       AND A TOTAL OF          6 INNER ITERATIONS.
    ------------------------------------------------

 OUTPUT CONTROL FOR STRESS PERIOD    1   TIME STEP  673
    SAVE HEAD FOR ALL LAYERS
 SOLVING FOR ZETA FOR LAYER     1 ZONE     2

     583 UPPER PART EQS.       582 LOWER PART EQS.    BAND WIDTH + 1 =   24
 STRESS PERIOD=  1 TIMESTEP=673 LAYER=  1 ZONE=  2 ACTIVE CELLS= 1165 NUMBER OF EQUATIONS=    1165
 SOLVING FOR ZETA FOR LAYER     2 ZONE     2

     613 UPPER PART EQS.       604 LOWER PART EQS.    BAND WIDTH + 1 =   32
 STRESS PERIOD=  1 TIMESTEP=673 LAYER=  2 ZONE=  2 ACTIVE CELLS= 1217 NUMBER OF EQUATIONS=    1217
 UBUDSV SAVING "      ZETASRF  1" ON UNIT 55 AT TIME STEP673, STRESS PERIOD    1

 HEAD WILL BE SAVED ON UNIT   51 AT END OF TIME STEP  673, STRESS PERIOD    1
 
 SOLVING FOR HEAD 
                                                   Max.-Head-Change                         Max.-Flux-Residual
  Residual-Control   Outer-Iter.   Inner-Iter.     Column Row Layer    Maximum-Head-Change  Column Row Layer    Maximum-Flux-Residual          L2-NORM 
          0                 1           1            29   14     1      -0.8978983721E-03      28   14    1        -0.4975175564E+00      0.3611059366E+01
          0                 2           1            44   31     1       0.5959760070E-04      26   49    1        -0.1580201467E-01      0.1156591242E+00
          0                 3           1            42   32     2       0.3319463532E-04      30   15    1        -0.2834463718E-02      0.2973398594E-01
          0                 4           1            43   30     1       0.1222968304E-04      32   13    1        -0.1281708057E-02      0.1417904738E-01
          0                 5           1            16   33     1       0.9934229182E-05      30   15    1        -0.8695466668E-03      0.8548046247E-02

    ------------------------------------------------
       NWT REQUIRED            5 OUTER ITERATIONS 
       AND A TOTAL OF          5 INNER ITERATIONS.
    ------------------------------------------------

 OUTPUT CONTROL FOR STRESS PERIOD    1   TIME STEP  674
    SAVE HEAD FOR ALL LAYERS
 SOLVING FOR ZETA FOR LAYER     1 ZONE     2

     595 UPPER PART EQS.       592 LOWER PART EQS.    BAND WIDTH + 1 =   24
 STRESS PERIOD=  1 TIMESTEP=674 LAYER=  1 ZONE=  2 ACTIVE CELLS= 1187 NUMBER OF EQUATIONS=    1187
 SOLVING FOR ZETA FOR LAYER     2 ZONE     2

     613 UPPER PART EQS.       604 LOWER PART EQS.    BAND WIDTH + 1 =   32
 STRESS PERIOD=  1 TIMESTEP=674 LAYER=  2 ZONE=  2 ACTIVE CELLS= 1217 NUMBER OF EQUATIONS=    1217
 UBUDSV SAVING "      ZETASRF  1" ON UNIT 55 AT TIME STEP674, STRESS PERIOD    1

 HEAD WILL BE SAVED ON UNIT   51 AT END OF TIME STEP  674, STRESS PERIOD    1
 
 SOLVING FOR HEAD 
                                                   Max.-Head-Change                         Max.-Flux-Residual
  Residual-Control   Outer-Iter.   Inner-Iter.     Column Row Layer    Maximum-Head-Change  Column Row Layer    Maximum-Flux-Residual          L2-NORM 
          0                 1           1            29   14     1       0.8945622629E-03      34   49    1         0.5095120827E+00      0.2564913008E+01
          0                 2           1            27   16     1       0.6186382282E-04      31   14    1         0.1615335375E-01      0.9193202967E-01
          0                 3           1            29   44     1       0.2926995068E-04      30   47    1         0.2835296478E-02      0.2449494490E-01
          0                 4           1            29   20     1       0.1527113878E-04      28   49    1         0.1186230542E-02      0.1467853327E-01
          0                 5           1            28   23     1       0.1361418310E-04      30   47    1         0.9155299623E-03      0.1215414190E-01
          0                 6           1            29   28     1       0.1080568231E-04      28   49    1         0.6468745394E-03      0.1081547355E-01
          0                 7           1            30   31     1       0.1059773173E-04      30   15    1         0.6444099671E-03      0.9710017283E-02
          0                 8           1            29   31     2       0.9419236886E-05      31   45    2         0.4585850231E-03      0.8780012116E-02

    ------------------------------------------------
       NWT REQUIRED            8 OUTER ITERATIONS 
       AND A TOTAL OF          8 INNER ITERATIONS.
    ------------------------------------------------

 OUTPUT CONTROL FOR STRESS PERIOD    1   TIME STEP  675
    SAVE HEAD FOR ALL LAYERS
 SOLVING FOR ZETA FOR LAYER     1 ZONE     2

     602 UPPER PART EQS.       594 LOWER PART EQS.    BAND WIDTH + 1 =   29
 STRESS PERIOD=  1 TIMESTEP=675 LAYER=  1 ZONE=  2 ACTIVE CELLS= 1196 NUMBER OF EQUATIONS=    1196
 SOLVING FOR ZETA FOR LAYER     2 ZONE     2

     611 UPPER PART EQS.       604 LOWER PART EQS.    BAND WIDTH + 1 =   32
 STRESS PERIOD=  1 TIMESTEP=675 LAYER=  2 ZONE=  2 ACTIVE CELLS= 1215 NUMBER OF EQUATIONS=    1215
 UBUDSV SAVING "      ZETASRF  1" ON UNIT 55 AT TIME STEP675, STRESS PERIOD    1

 HEAD WILL BE SAVED ON UNIT   51 AT END OF TIME STEP  675, STRESS PERIOD    1
 
 SOLVING FOR HEAD 
                                                   Max.-Head-Change                         Max.-Flux-Residual
  Residual-Control   Outer-Iter.   Inner-Iter.     Column Row Layer    Maximum-Head-Change  Column Row Layer    Maximum-Flux-Residual          L2-NORM 
          0                 1           1            48   33     1      -0.8714029307E-03      14   28    1        -0.4951275745E+00      0.2956647552E+01
          0                 2           1            44   31     1      -0.6720840491E-04      45   34    1        -0.1686926935E-01      0.9236812878E-01
          0                 3           1            43   31     2      -0.3460204175E-04      16   33    1        -0.2689708792E-02      0.2169229173E-01
          0                 4           1            43   30     1      -0.1369322538E-04      44   33    1        -0.1210871196E-02      0.1188654345E-01
          0                 5           1            16   33     1      -0.1135271036E-04      15   30    1        -0.8291481737E-03      0.8776406446E-02
          0                 6           1            44   33     1      -0.7611866892E-05      44   33    1        -0.6076084645E-03      0.7273393297E-02

    ------------------------------------------------
       NWT REQUIRED            6 OUTER ITERATIONS 
       AND A TOTAL OF          6 INNER ITERATIONS.
    ------------------------------------------------

 OUTPUT CONTROL FOR STRESS PERIOD    1   TIME STEP  676
    SAVE HEAD FOR ALL LAYERS
 SOLVING FOR ZETA FOR LAYER     1 ZONE     2

     592 UPPER PART EQS.       584 LOWER PART EQS.    BAND WIDTH + 1 =   29
 STRESS PERIOD=  1 TIMESTEP=676 LAYER=  1 ZONE=  2 ACTIVE CELLS= 1176 NUMBER OF EQUATIONS=    1176
 SOLVING FOR ZETA FOR LAYER     2 ZONE     2

     609 UPPER PART EQS.       604 LOWER PART EQS.    BAND WIDTH + 1 =   32
 STRESS PERIOD=  1 TIMESTEP=676 LAYER=  2 ZONE=  2 ACTIVE CELLS= 1213 NUMBER OF EQUATIONS=    1213
 UBUDSV SAVING "      ZETASRF  1" ON UNIT 55 AT TIME STEP676, STRESS PERIOD    1

 HEAD WILL BE SAVED ON UNIT   51 AT END OF TIME STEP  676, STRESS PERIOD    1
 
 SOLVING FOR HEAD 
                                                   Max.-Head-Change                         Max.-Flux-Residual
  Residual-Control   Outer-Iter.   Inner-Iter.     Column Row Layer    Maximum-Head-Change  Column Row Layer    Maximum-Flux-Residual          L2-NORM 
          0                 1           1            29   48     1      -0.8516263726E-03      28   14    1        -0.4953085523E+00      0.3548506251E+01
          0                 2           1            44   31     1       0.5518162705E-04      45   30    1         0.1551560000E-01      0.1059370469E+00
          0                 3           1            42   32     2       0.3097127609E-04      16   33    1         0.2172902315E-02      0.2404737772E-01
          0                 4           1            43   30     1       0.1212015059E-04      43   30    1         0.1001925227E-02      0.1183593321E-01
          0                 5           1            42   32     2       0.9875548361E-05      46   31    1         0.7042304446E-03      0.7490323282E-02

    ------------------------------------------------
       NWT REQUIRED            5 OUTER ITERATIONS 
       AND A TOTAL OF          5 INNER ITERATIONS.
    ------------------------------------------------

 OUTPUT CONTROL FOR STRESS PERIOD    1   TIME STEP  677
    SAVE HEAD FOR ALL LAYERS
 SOLVING FOR ZETA FOR LAYER     1 ZONE     2

     590 UPPER PART EQS.       592 LOWER PART EQS.    BAND WIDTH + 1 =   27
 STRESS PERIOD=  1 TIMESTEP=677 LAYER=  1 ZONE=  2 ACTIVE CELLS= 1182 NUMBER OF EQUATIONS=    1182
 SOLVING FOR ZETA FOR LAYER     2 ZONE     2

     611 UPPER PART EQS.       604 LOWER PART EQS.    BAND WIDTH + 1 =   32
 STRESS PERIOD=  1 TIMESTEP=677 LAYER=  2 ZONE=  2 ACTIVE CELLS= 1215 NUMBER OF EQUATIONS=    1215
 UBUDSV SAVING "      ZETASRF  1" ON UNIT 55 AT TIME STEP677, STRESS PERIOD    1

 HEAD WILL BE SAVED ON UNIT   51 AT END OF TIME STEP  677, STRESS PERIOD    1
 
 SOLVING FOR HEAD 
                                                   Max.-Head-Change                         Max.-Flux-Residual
  Residual-Control   Outer-Iter.   Inner-Iter.     Column Row Layer    Maximum-Head-Change  Column Row Layer    Maximum-Flux-Residual          L2-NORM 
          0                 1           1            29   14     1       0.8617062259E-03      34   48    1        -0.4953649348E+00      0.2595044498E+01
          0                 2           1            27   16     1       0.5481360621E-04      31   14    1         0.1606852289E-01      0.8556768042E-01
          0                 3           1            28   45     1       0.2582868755E-04      30   47    1         0.2465390190E-02      0.2268423008E-01
          0                 4           1            27   41     2       0.1410093192E-04      28   49    1         0.1061058313E-02      0.1384940549E-01
          0                 5           1            26   23     1       0.1347650471E-04      30   47    1         0.8641615411E-03      0.1152440734E-01
          0                 6           1            27   29     2       0.1041608006E-04      28   49    1         0.6315438328E-03      0.1026639079E-01
          0                 7           1            28   31     1       0.1061615245E-04      30   47    1         0.6262665387E-03      0.9174538712E-02
          0                 8           1            28   32     2       0.8755987656E-05      28   49    1         0.4560604139E-03      0.8304390619E-02

    ------------------------------------------------
       NWT REQUIRED            8 OUTER ITERATIONS 
       AND A TOTAL OF          8 INNER ITERATIONS.
    ------------------------------------------------

 OUTPUT CONTROL FOR STRESS PERIOD    1   TIME STEP  678
    SAVE HEAD FOR ALL LAYERS
 SOLVING FOR ZETA FOR LAYER     1 ZONE     2

     604 UPPER PART EQS.       588 LOWER PART EQS.    BAND WIDTH + 1 =   35
 STRESS PERIOD=  1 TIMESTEP=678 LAYER=  1 ZONE=  2 ACTIVE CELLS= 1192 NUMBER OF EQUATIONS=    1192
 SOLVING FOR ZETA FOR LAYER     2 ZONE     2

     610 UPPER PART EQS.       604 LOWER PART EQS.    BAND WIDTH + 1 =   32
 STRESS PERIOD=  1 TIMESTEP=678 LAYER=  2 ZONE=  2 ACTIVE CELLS= 1214 NUMBER OF EQUATIONS=    1214
 UBUDSV SAVING "      ZETASRF  1" ON UNIT 55 AT TIME STEP678, STRESS PERIOD    1

 HEAD WILL BE SAVED ON UNIT   51 AT END OF TIME STEP  678, STRESS PERIOD    1
 
 SOLVING FOR HEAD 
                                                   Max.-Head-Change                         Max.-Flux-Residual
  Residual-Control   Outer-Iter.   Inner-Iter.     Column Row Layer    Maximum-Head-Change  Column Row Layer    Maximum-Flux-Residual          L2-NORM 
          0                 1           1            48   33     1      -0.8687048301E-03      14   28    1        -0.4930659485E+00      0.3186967439E+01
          0                 2           1            44   31     1      -0.6795635345E-04      45   34    1        -0.1684806984E-01      0.9512276302E-01
          0                 3           1            43   31     2      -0.3493796306E-04      16   33    1        -0.2771974593E-02      0.2265250755E-01
          0                 4           1            18   32     2      -0.1355572279E-04      44   33    1        -0.1228135701E-02      0.1212918912E-01
          0                 5           1            16   33     1      -0.1241347528E-04      15   30    1        -0.8860931750E-03      0.8844211960E-02
          0                 6           1            19   30     1      -0.7785969716E-05      15   30    1        -0.5824385152E-03      0.7284326679E-02

    ------------------------------------------------
       NWT REQUIRED            6 OUTER ITERATIONS 
       AND A TOTAL OF          6 INNER ITERATIONS.
    ------------------------------------------------

 OUTPUT CONTROL FOR STRESS PERIOD    1   TIME STEP  679
    SAVE HEAD FOR ALL LAYERS
 SOLVING FOR ZETA FOR LAYER     1 ZONE     2

     586 UPPER PART EQS.       590 LOWER PART EQS.    BAND WIDTH + 1 =   27
 STRESS PERIOD=  1 TIMESTEP=679 LAYER=  1 ZONE=  2 ACTIVE CELLS= 1176 NUMBER OF EQUATIONS=    1176
 SOLVING FOR ZETA FOR LAYER     2 ZONE     2

     612 UPPER PART EQS.       602 LOWER PART EQS.    BAND WIDTH + 1 =   33
 STRESS PERIOD=  1 TIMESTEP=679 LAYER=  2 ZONE=  2 ACTIVE CELLS= 1214 NUMBER OF EQUATIONS=    1214
 UBUDSV SAVING "      ZETASRF  1" ON UNIT 55 AT TIME STEP679, STRESS PERIOD    1

 HEAD WILL BE SAVED ON UNIT   51 AT END OF TIME STEP  679, STRESS PERIOD    1
 
 SOLVING FOR HEAD 
                                                   Max.-Head-Change                         Max.-Flux-Residual
  Residual-Control   Outer-Iter.   Inner-Iter.     Column Row Layer    Maximum-Head-Change  Column Row Layer    Maximum-Flux-Residual          L2-NORM 
          0                 1           1            29   48     1      -0.8472882435E-03      28   48    1        -0.4931767324E+00      0.3433881307E+01
          0                 2           1            44   31     1       0.5637540264E-04      45   30    1         0.1553852219E-01      0.1043987780E+00
          0                 3           1            42   32     2       0.3280639943E-04      16   33    1         0.2191896484E-02      0.2368523065E-01
          0                 4           1            43   30     1       0.1253060973E-04      43   30    1         0.1026532530E-02      0.1173521183E-01
          0                 5           1            42   32     2       0.1043531642E-04      46   31    1         0.7178069632E-03      0.7643377100E-02
          0                 6           1            43   30     1       0.6180822107E-05      43   34    1         0.4779527895E-03      0.5481900430E-02

    ------------------------------------------------
       NWT REQUIRED            6 OUTER ITERATIONS 
       AND A TOTAL OF          6 INNER ITERATIONS.
    ------------------------------------------------

 OUTPUT CONTROL FOR STRESS PERIOD    1   TIME STEP  680
    SAVE HEAD FOR ALL LAYERS
 SOLVING FOR ZETA FOR LAYER     1 ZONE     2

     594 UPPER PART EQS.       586 LOWER PART EQS.    BAND WIDTH + 1 =   32
 STRESS PERIOD=  1 TIMESTEP=680 LAYER=  1 ZONE=  2 ACTIVE CELLS= 1180 NUMBER OF EQUATIONS=    1180
 SOLVING FOR ZETA FOR LAYER     2 ZONE     2

     613 UPPER PART EQS.       604 LOWER PART EQS.    BAND WIDTH + 1 =   32
 STRESS PERIOD=  1 TIMESTEP=680 LAYER=  2 ZONE=  2 ACTIVE CELLS= 1217 NUMBER OF EQUATIONS=    1217
 UBUDSV SAVING "      ZETASRF  1" ON UNIT 55 AT TIME STEP680, STRESS PERIOD    1

 HEAD WILL BE SAVED ON UNIT   51 AT END OF TIME STEP  680, STRESS PERIOD    1
 
 SOLVING FOR HEAD 
                                                   Max.-Head-Change                         Max.-Flux-Residual
  Residual-Control   Outer-Iter.   Inner-Iter.     Column Row Layer    Maximum-Head-Change  Column Row Layer    Maximum-Flux-Residual          L2-NORM 
          0                 1           1            29   14     1       0.8589199265E-03      34   48    1        -0.4933085513E+00      0.2650648488E+01
          0                 2           1            27   16     1       0.5184605491E-04      31   14    1         0.1635609017E-01      0.8160709929E-01
          0                 3           1            29   44     1       0.2498726969E-04      30   47    1         0.2482077722E-02      0.2065598151E-01
          0                 4           1            28   21     1       0.1329472183E-04      28   49    1         0.9541420353E-03      0.1293207205E-01
          0                 5           1            28   23     1       0.1180672446E-04      30   47    1         0.8299141884E-03      0.1088320572E-01
          0                 6           1            29   31     2       0.1013591460E-04      28   49    1         0.5895703425E-03      0.9770099887E-02
          0                 7           1            30   31     1       0.9447639507E-05      30   47    1         0.5986834666E-03      0.8770875531E-02

    ------------------------------------------------
       NWT REQUIRED            7 OUTER ITERATIONS 
       AND A TOTAL OF          7 INNER ITERATIONS.
    ------------------------------------------------

 OUTPUT CONTROL FOR STRESS PERIOD    1   TIME STEP  681
    SAVE HEAD FOR ALL LAYERS
 SOLVING FOR ZETA FOR LAYER     1 ZONE     2

     597 UPPER PART EQS.       598 LOWER PART EQS.    BAND WIDTH + 1 =   23
 STRESS PERIOD=  1 TIMESTEP=681 LAYER=  1 ZONE=  2 ACTIVE CELLS= 1195 NUMBER OF EQUATIONS=    1195
 SOLVING FOR ZETA FOR LAYER     2 ZONE     2

     613 UPPER PART EQS.       604 LOWER PART EQS.    BAND WIDTH + 1 =   32
 STRESS PERIOD=  1 TIMESTEP=681 LAYER=  2 ZONE=  2 ACTIVE CELLS= 1217 NUMBER OF EQUATIONS=    1217
 UBUDSV SAVING "      ZETASRF  1" ON UNIT 55 AT TIME STEP681, STRESS PERIOD    1

 HEAD WILL BE SAVED ON UNIT   51 AT END OF TIME STEP  681, STRESS PERIOD    1
 
 SOLVING FOR HEAD 
                                                   Max.-Head-Change                         Max.-Flux-Residual
  Residual-Control   Outer-Iter.   Inner-Iter.     Column Row Layer    Maximum-Head-Change  Column Row Layer    Maximum-Flux-Residual          L2-NORM 
          0                 1           1            48   33     1      -0.8641353803E-03      14   28    1        -0.4910963491E+00      0.3006909309E+01
          0                 2           1            44   31     1      -0.6672001099E-04      45   34    1        -0.1672648654E-01      0.9398262046E-01
          0                 3           1            43   31     2      -0.3430356811E-04      16   33    1        -0.2661000422E-02      0.2182460326E-01
          0                 4           1            43   30     1      -0.1424511181E-04      44   33    1        -0.1230750148E-02      0.1166017854E-01
          0                 5           1            42   32     2      -0.1213392932E-04      46   31    1        -0.8201018762E-03      0.8419320873E-02
          0                 6           1            44   33     1      -0.8081671088E-05      44   33    1        -0.6376500183E-03      0.6825620332E-02

    ------------------------------------------------
       NWT REQUIRED            6 OUTER ITERATIONS 
       AND A TOTAL OF          6 INNER ITERATIONS.
    ------------------------------------------------

 OUTPUT CONTROL FOR STRESS PERIOD    1   TIME STEP  682
    SAVE HEAD FOR ALL LAYERS
 SOLVING FOR ZETA FOR LAYER     1 ZONE     2

     591 UPPER PART EQS.       584 LOWER PART EQS.    BAND WIDTH + 1 =   28
 STRESS PERIOD=  1 TIMESTEP=682 LAYER=  1 ZONE=  2 ACTIVE CELLS= 1175 NUMBER OF EQUATIONS=    1175
 SOLVING FOR ZETA FOR LAYER     2 ZONE     2

     613 UPPER PART EQS.       604 LOWER PART EQS.    BAND WIDTH + 1 =   32
 STRESS PERIOD=  1 TIMESTEP=682 LAYER=  2 ZONE=  2 ACTIVE CELLS= 1217 NUMBER OF EQUATIONS=    1217
 UBUDSV SAVING "      ZETASRF  1" ON UNIT 55 AT TIME STEP682, STRESS PERIOD    1

 HEAD WILL BE SAVED ON UNIT   51 AT END OF TIME STEP  682, STRESS PERIOD    1
 
 SOLVING FOR HEAD 
                                                   Max.-Head-Change                         Max.-Flux-Residual
  Residual-Control   Outer-Iter.   Inner-Iter.     Column Row Layer    Maximum-Head-Change  Column Row Layer    Maximum-Flux-Residual          L2-NORM 
          0                 1           1            29   48     1      -0.8444466400E-03      28   48    1        -0.4911321071E+00      0.3367382282E+01
          0                 2           1            44   31     1       0.5583625656E-04      45   30    1         0.1542212991E-01      0.1054852279E+00
          0                 3           1            42   32     2       0.3188674878E-04      16   33    1         0.2331820219E-02      0.2491743771E-01
          0                 4           1            43   30     1       0.1287283119E-04      43   34    1         0.1061228286E-02      0.1226449622E-01
          0                 5           1            42   32     2       0.1160967706E-04      46   31    1         0.7422388108E-03      0.7995691408E-02
          0                 6           1            43   30     1       0.6855027921E-05      43   34    1         0.5274486279E-03      0.5762888116E-02

    ------------------------------------------------
       NWT REQUIRED            6 OUTER ITERATIONS 
       AND A TOTAL OF          6 INNER ITERATIONS.
    ------------------------------------------------

 OUTPUT CONTROL FOR STRESS PERIOD    1   TIME STEP  683
    SAVE HEAD FOR ALL LAYERS
 SOLVING FOR ZETA FOR LAYER     1 ZONE     2

     594 UPPER PART EQS.       584 LOWER PART EQS.    BAND WIDTH + 1 =   28
 STRESS PERIOD=  1 TIMESTEP=683 LAYER=  1 ZONE=  2 ACTIVE CELLS= 1178 NUMBER OF EQUATIONS=    1178
 SOLVING FOR ZETA FOR LAYER     2 ZONE     2

     613 UPPER PART EQS.       604 LOWER PART EQS.    BAND WIDTH + 1 =   32
 STRESS PERIOD=  1 TIMESTEP=683 LAYER=  2 ZONE=  2 ACTIVE CELLS= 1217 NUMBER OF EQUATIONS=    1217
 UBUDSV SAVING "      ZETASRF  1" ON UNIT 55 AT TIME STEP683, STRESS PERIOD    1

 HEAD WILL BE SAVED ON UNIT   51 AT END OF TIME STEP  683, STRESS PERIOD    1
 
 SOLVING FOR HEAD 
                                                   Max.-Head-Change                         Max.-Flux-Residual
  Residual-Control   Outer-Iter.   Inner-Iter.     Column Row Layer    Maximum-Head-Change  Column Row Layer    Maximum-Flux-Residual          L2-NORM 
          0                 1           1            29   14     1       0.8521000384E-03      13   27    1         0.5591305614E+00      0.3267287523E+01
          0                 2           1            32   49     1      -0.5224376720E-04      32   49    1        -0.2316662776E-01      0.9431200027E-01
          0                 3           1            28   45     1       0.2100530843E-04      30   15    1         0.2232611874E-02      0.1736682441E-01
          0                 4           1            27   41     2       0.1056517307E-04      26   42    2         0.6760871795E-03      0.8554696387E-02
          0                 5           1            28   41     1       0.7331907583E-05      30   47    1         0.5642540201E-03      0.6227992877E-02

    ------------------------------------------------
       NWT REQUIRED            5 OUTER ITERATIONS 
       AND A TOTAL OF          5 INNER ITERATIONS.
    ------------------------------------------------

 OUTPUT CONTROL FOR STRESS PERIOD    1   TIME STEP  684
    SAVE HEAD FOR ALL LAYERS
 SOLVING FOR ZETA FOR LAYER     1 ZONE     2

     604 UPPER PART EQS.       585 LOWER PART EQS.    BAND WIDTH + 1 =   37
 STRESS PERIOD=  1 TIMESTEP=684 LAYER=  1 ZONE=  2 ACTIVE CELLS= 1189 NUMBER OF EQUATIONS=    1189
 SOLVING FOR ZETA FOR LAYER     2 ZONE     2

     611 UPPER PART EQS.       604 LOWER PART EQS.    BAND WIDTH + 1 =   32
 STRESS PERIOD=  1 TIMESTEP=684 LAYER=  2 ZONE=  2 ACTIVE CELLS= 1215 NUMBER OF EQUATIONS=    1215
 UBUDSV SAVING "      ZETASRF  1" ON UNIT 55 AT TIME STEP684, STRESS PERIOD    1

 HEAD WILL BE SAVED ON UNIT   51 AT END OF TIME STEP  684, STRESS PERIOD    1
 
 SOLVING FOR HEAD 
                                                   Max.-Head-Change                         Max.-Flux-Residual
  Residual-Control   Outer-Iter.   Inner-Iter.     Column Row Layer    Maximum-Head-Change  Column Row Layer    Maximum-Flux-Residual          L2-NORM 
          0                 1           1            48   33     1      -0.8172267924E-03      35   48    1         0.5409299419E+00      0.3677167068E+01
          0                 2           1            44   33     1      -0.5387375503E-04      45   34    1        -0.1580015477E-01      0.9342616616E-01
          0                 3           1            43   31     2      -0.2837537791E-04      46   31    1        -0.2231535779E-02      0.1847753867E-01
          0                 4           1            43   30     1      -0.1119878707E-04      43   30    1        -0.1012102073E-02      0.9454378763E-02
          0                 5           1            42   32     2      -0.8959295639E-05      46   31    1        -0.7086939234E-03      0.6458487733E-02

    ------------------------------------------------
       NWT REQUIRED            5 OUTER ITERATIONS 
       AND A TOTAL OF          5 INNER ITERATIONS.
    ------------------------------------------------

 OUTPUT CONTROL FOR STRESS PERIOD    1   TIME STEP  685
    SAVE HEAD FOR ALL LAYERS
 SOLVING FOR ZETA FOR LAYER     1 ZONE     2

     588 UPPER PART EQS.       583 LOWER PART EQS.    BAND WIDTH + 1 =   26
 STRESS PERIOD=  1 TIMESTEP=685 LAYER=  1 ZONE=  2 ACTIVE CELLS= 1171 NUMBER OF EQUATIONS=    1171
 SOLVING FOR ZETA FOR LAYER     2 ZONE     2

     613 UPPER PART EQS.       604 LOWER PART EQS.    BAND WIDTH + 1 =   32
 STRESS PERIOD=  1 TIMESTEP=685 LAYER=  2 ZONE=  2 ACTIVE CELLS= 1217 NUMBER OF EQUATIONS=    1217
 UBUDSV SAVING "      ZETASRF  1" ON UNIT 55 AT TIME STEP685, STRESS PERIOD    1

 HEAD WILL BE SAVED ON UNIT   51 AT END OF TIME STEP  685, STRESS PERIOD    1
 
 SOLVING FOR HEAD 
                                                   Max.-Head-Change                         Max.-Flux-Residual
  Residual-Control   Outer-Iter.   Inner-Iter.     Column Row Layer    Maximum-Head-Change  Column Row Layer    Maximum-Flux-Residual          L2-NORM 
          0                 1           1            28   14     1      -0.9258179538E-03      27   13    1         0.5591132330E+00      0.3611353114E+01
          0                 2           1            25   16     1      -0.5997291290E-04      26   49    1        -0.1636780394E-01      0.1197232162E+00
          0                 3           1            42   32     2       0.3497548432E-04      29   16    1        -0.2630537771E-02      0.2985587163E-01
          0                 4           1            43   30     1       0.1407782522E-04      44   33    1         0.1177763045E-02      0.1427992803E-01
          0                 5           1            42   32     2       0.1239530934E-04      46   31    1         0.7850753672E-03      0.8971183197E-02
          0                 6           1            43   30     1       0.6847552779E-05      44   33    1         0.5414492676E-03      0.6229819919E-02

    ------------------------------------------------
       NWT REQUIRED            6 OUTER ITERATIONS 
       AND A TOTAL OF          6 INNER ITERATIONS.
    ------------------------------------------------

 OUTPUT CONTROL FOR STRESS PERIOD    1   TIME STEP  686
    SAVE HEAD FOR ALL LAYERS
 SOLVING FOR ZETA FOR LAYER     1 ZONE     2

     596 UPPER PART EQS.       582 LOWER PART EQS.    BAND WIDTH + 1 =   35
 STRESS PERIOD=  1 TIMESTEP=686 LAYER=  1 ZONE=  2 ACTIVE CELLS= 1178 NUMBER OF EQUATIONS=    1178
 SOLVING FOR ZETA FOR LAYER     2 ZONE     2

     613 UPPER PART EQS.       604 LOWER PART EQS.    BAND WIDTH + 1 =   32
 STRESS PERIOD=  1 TIMESTEP=686 LAYER=  2 ZONE=  2 ACTIVE CELLS= 1217 NUMBER OF EQUATIONS=    1217
 UBUDSV SAVING "      ZETASRF  1" ON UNIT 55 AT TIME STEP686, STRESS PERIOD    1

 HEAD WILL BE SAVED ON UNIT   51 AT END OF TIME STEP  686, STRESS PERIOD    1
 
 SOLVING FOR HEAD 
                                                   Max.-Head-Change                         Max.-Flux-Residual
  Residual-Control   Outer-Iter.   Inner-Iter.     Column Row Layer    Maximum-Head-Change  Column Row Layer    Maximum-Flux-Residual          L2-NORM 
          0                 1           1            28   14     1       0.9384037225E-03      27   48    1         0.5389911757E+00      0.2555839853E+01
          0                 2           1            26   17     1       0.6874074822E-04      31   14    1         0.2002711235E-01      0.9880916977E-01
          0                 3           1            28   45     1       0.3442534759E-04      27   46    1         0.2693091378E-02      0.2794382560E-01
          0                 4           1            28   21     1       0.1870096612E-04      31   14    1         0.1538727829E-02      0.1769287103E-01
          0                 5           1            28   23     1       0.1628911902E-04      27   14    1         0.9586468748E-03      0.1479979444E-01
          0                 6           1            29   35     2       0.1321267275E-04      31   14    1         0.8684371637E-03      0.1316017823E-01
          0                 7           1            30   31     1       0.1265211998E-04      30   47    1         0.6300008453E-03      0.1179152684E-01
          0                 8           1            29   31     2       0.1151447622E-04      25   16    1         0.6453286336E-03      0.1064653692E-01
          0                 9           1            30   31     1       0.1022505416E-04      30   47    1         0.5090305905E-03      0.9597132240E-02
          0                10           1            29   31     2       0.9555397484E-05      25   16    1         0.5188879772E-03      0.8674556482E-02

    ------------------------------------------------
       NWT REQUIRED           10 OUTER ITERATIONS 
       AND A TOTAL OF         10 INNER ITERATIONS.
    ------------------------------------------------

 OUTPUT CONTROL FOR STRESS PERIOD    1   TIME STEP  687
    SAVE HEAD FOR ALL LAYERS
 SOLVING FOR ZETA FOR LAYER     1 ZONE     2

     600 UPPER PART EQS.       600 LOWER PART EQS.    BAND WIDTH + 1 =   23
 STRESS PERIOD=  1 TIMESTEP=687 LAYER=  1 ZONE=  2 ACTIVE CELLS= 1200 NUMBER OF EQUATIONS=    1200
 SOLVING FOR ZETA FOR LAYER     2 ZONE     2

     613 UPPER PART EQS.       604 LOWER PART EQS.    BAND WIDTH + 1 =   32
 STRESS PERIOD=  1 TIMESTEP=687 LAYER=  2 ZONE=  2 ACTIVE CELLS= 1217 NUMBER OF EQUATIONS=    1217
 UBUDSV SAVING "      ZETASRF  1" ON UNIT 55 AT TIME STEP687, STRESS PERIOD    1

 HEAD WILL BE SAVED ON UNIT   51 AT END OF TIME STEP  687, STRESS PERIOD    1
 
 SOLVING FOR HEAD 
                                                   Max.-Head-Change                         Max.-Flux-Residual
  Residual-Control   Outer-Iter.   Inner-Iter.     Column Row Layer    Maximum-Head-Change  Column Row Layer    Maximum-Flux-Residual          L2-NORM 
          0                 1           1            48   33     1      -0.8565605071E-03      14   28    1        -0.4868867633E+00      0.3116066907E+01
          0                 2           1            44   31     1      -0.6710665634E-04      45   34    1        -0.1661495599E-01      0.9436334681E-01
          0                 3           1            43   31     2      -0.3601282962E-04      16   33    1        -0.2704066373E-02      0.2348386954E-01
          0                 4           1            43   30     1      -0.1479280117E-04      44   33    1        -0.1269030658E-02      0.1401932340E-01
          0                 5           1            16   33     1      -0.1358625420E-04      16   33    1        -0.9085592411E-03      0.1099652524E-01
          0                 6           1            44   33     1      -0.8821906973E-05      44   33    1        -0.6967357527E-03      0.9470035423E-02

    ------------------------------------------------
       NWT REQUIRED            6 OUTER ITERATIONS 
       AND A TOTAL OF          6 INNER ITERATIONS.
    ------------------------------------------------

 OUTPUT CONTROL FOR STRESS PERIOD    1   TIME STEP  688
    SAVE HEAD FOR ALL LAYERS
 SOLVING FOR ZETA FOR LAYER     1 ZONE     2

     584 UPPER PART EQS.       582 LOWER PART EQS.    BAND WIDTH + 1 =   26
 STRESS PERIOD=  1 TIMESTEP=688 LAYER=  1 ZONE=  2 ACTIVE CELLS= 1166 NUMBER OF EQUATIONS=    1166
 SOLVING FOR ZETA FOR LAYER     2 ZONE     2

     613 UPPER PART EQS.       606 LOWER PART EQS.    BAND WIDTH + 1 =   32
 STRESS PERIOD=  1 TIMESTEP=688 LAYER=  2 ZONE=  2 ACTIVE CELLS= 1219 NUMBER OF EQUATIONS=    1219
 UBUDSV SAVING "      ZETASRF  1" ON UNIT 55 AT TIME STEP688, STRESS PERIOD    1

 HEAD WILL BE SAVED ON UNIT   51 AT END OF TIME STEP  688, STRESS PERIOD    1
 
 SOLVING FOR HEAD 
                                                   Max.-Head-Change                         Max.-Flux-Residual
  Residual-Control   Outer-Iter.   Inner-Iter.     Column Row Layer    Maximum-Head-Change  Column Row Layer    Maximum-Flux-Residual          L2-NORM 
          0                 1           1            29   48     1      -0.8367128874E-03      28   48    1        -0.4871376749E+00      0.3655061022E+01
          0                 2           1            44   31     1       0.5651173227E-04      26   49    1        -0.1661902895E-01      0.1070425401E+00
          0                 3           1            42   32     2       0.3332982504E-04      16   33    1         0.2282206645E-02      0.2566430716E-01
          0                 4           1            43   30     1       0.1283275499E-04      43   34    1         0.1084447320E-02      0.1266590045E-01
          0                 5           1            42   32     2       0.1194234785E-04      46   31    1         0.7281787549E-03      0.8388246810E-02
          0                 6           1            43   30     1       0.6793763714E-05      43   34    1         0.5234661647E-03      0.6292853010E-02

    ------------------------------------------------
       NWT REQUIRED            6 OUTER ITERATIONS 
       AND A TOTAL OF          6 INNER ITERATIONS.
    ------------------------------------------------

 OUTPUT CONTROL FOR STRESS PERIOD    1   TIME STEP  689
    SAVE HEAD FOR ALL LAYERS
 SOLVING FOR ZETA FOR LAYER     1 ZONE     2

     601 UPPER PART EQS.       586 LOWER PART EQS.    BAND WIDTH + 1 =   35
 STRESS PERIOD=  1 TIMESTEP=689 LAYER=  1 ZONE=  2 ACTIVE CELLS= 1187 NUMBER OF EQUATIONS=    1187
 SOLVING FOR ZETA FOR LAYER     2 ZONE     2

     612 UPPER PART EQS.       608 LOWER PART EQS.    BAND WIDTH + 1 =   32
 STRESS PERIOD=  1 TIMESTEP=689 LAYER=  2 ZONE=  2 ACTIVE CELLS= 1220 NUMBER OF EQUATIONS=    1220
 UBUDSV SAVING "      ZETASRF  1" ON UNIT 55 AT TIME STEP689, STRESS PERIOD    1

 HEAD WILL BE SAVED ON UNIT   51 AT END OF TIME STEP  689, STRESS PERIOD    1
 
 SOLVING FOR HEAD 
                                                   Max.-Head-Change                         Max.-Flux-Residual
  Residual-Control   Outer-Iter.   Inner-Iter.     Column Row Layer    Maximum-Head-Change  Column Row Layer    Maximum-Flux-Residual          L2-NORM 
          0                 1           1            29   14     1       0.8487083522E-03      14   35    1        -0.5471468878E+00      0.3106401716E+01
          0                 2           1            27   16     1       0.4999922409E-04      31   14    1         0.1613442767E-01      0.8800442751E-01
          0                 3           1            28   45     1       0.2476815717E-04      30   47    1         0.2472296304E-02      0.1902581474E-01
          0                 4           1            28   42     2       0.1129656107E-04      28   49    1         0.8739331713E-03      0.9609582217E-02
          0                 5           1            28   41     1       0.7959149030E-05      30   47    1         0.7190728263E-03      0.6826854225E-02

    ------------------------------------------------
       NWT REQUIRED            5 OUTER ITERATIONS 
       AND A TOTAL OF          5 INNER ITERATIONS.
    ------------------------------------------------

 OUTPUT CONTROL FOR STRESS PERIOD    1   TIME STEP  690
    SAVE HEAD FOR ALL LAYERS
 SOLVING FOR ZETA FOR LAYER     1 ZONE     2

     600 UPPER PART EQS.       580 LOWER PART EQS.    BAND WIDTH + 1 =   41
 STRESS PERIOD=  1 TIMESTEP=690 LAYER=  1 ZONE=  2 ACTIVE CELLS= 1180 NUMBER OF EQUATIONS=    1180
 SOLVING FOR ZETA FOR LAYER     2 ZONE     2

     609 UPPER PART EQS.       606 LOWER PART EQS.    BAND WIDTH + 1 =   33
 STRESS PERIOD=  1 TIMESTEP=690 LAYER=  2 ZONE=  2 ACTIVE CELLS= 1215 NUMBER OF EQUATIONS=    1215
 UBUDSV SAVING "      ZETASRF  1" ON UNIT 55 AT TIME STEP690, STRESS PERIOD    1

 HEAD WILL BE SAVED ON UNIT   51 AT END OF TIME STEP  690, STRESS PERIOD    1
 
 SOLVING FOR HEAD 
                                                   Max.-Head-Change                         Max.-Flux-Residual
  Residual-Control   Outer-Iter.   Inner-Iter.     Column Row Layer    Maximum-Head-Change  Column Row Layer    Maximum-Flux-Residual          L2-NORM 
          0                 1           1            48   33     1      -0.8114588165E-03      35   48    1        -0.5499065501E+00      0.3775257259E+01
          0                 2           1            44   31     1      -0.5274282803E-04      45   34    1        -0.1566214839E-01      0.8988738247E-01
          0                 3           1            43   31     2      -0.2501861560E-04      46   31    1        -0.2214307647E-02      0.1806580290E-01
          0                 4           1            43   30     1      -0.1053844610E-04      16   33    1        -0.9939121811E-03      0.1006065897E-01
          0                 5           1            42   32     2      -0.9056043900E-05      16   33    1        -0.6462696490E-03      0.7894106551E-02

    ------------------------------------------------
       NWT REQUIRED            5 OUTER ITERATIONS 
       AND A TOTAL OF          5 INNER ITERATIONS.
    ------------------------------------------------

 OUTPUT CONTROL FOR STRESS PERIOD    1   TIME STEP  691
    SAVE HEAD FOR ALL LAYERS
 SOLVING FOR ZETA FOR LAYER     1 ZONE     2

     586 UPPER PART EQS.       586 LOWER PART EQS.    BAND WIDTH + 1 =   23
 STRESS PERIOD=  1 TIMESTEP=691 LAYER=  1 ZONE=  2 ACTIVE CELLS= 1172 NUMBER OF EQUATIONS=    1172
 SOLVING FOR ZETA FOR LAYER     2 ZONE     2

     613 UPPER PART EQS.       612 LOWER PART EQS.    BAND WIDTH + 1 =   34
 STRESS PERIOD=  1 TIMESTEP=691 LAYER=  2 ZONE=  2 ACTIVE CELLS= 1225 NUMBER OF EQUATIONS=    1225
 UBUDSV SAVING "      ZETASRF  1" ON UNIT 55 AT TIME STEP691, STRESS PERIOD    1

 HEAD WILL BE SAVED ON UNIT   51 AT END OF TIME STEP  691, STRESS PERIOD    1
 
 SOLVING FOR HEAD 
                                                   Max.-Head-Change                         Max.-Flux-Residual
  Residual-Control   Outer-Iter.   Inner-Iter.     Column Row Layer    Maximum-Head-Change  Column Row Layer    Maximum-Flux-Residual          L2-NORM 
          0                 1           1            28   14     1      -0.9185598181E-03      27   48    1        -0.5473473787E+00      0.3799489798E+01
          0                 2           1            44   31     1       0.5648106405E-04      32   49    1         0.2179194565E-01      0.1193183664E+00
          0                 3           1            42   32     2       0.3202694553E-04      30   15    1        -0.2413869771E-02      0.2692469110E-01
          0                 4           1            43   30     1       0.1389355098E-04      43   34    1         0.1088225268E-02      0.1326571361E-01
          0                 5           1            42   32     2       0.1182273258E-04      46   31    1         0.7558139812E-03      0.8691799182E-02
          0                 6           1            43   30     1       0.7111359806E-05      43   34    1         0.5240629851E-03      0.6379726918E-02

    ------------------------------------------------
       NWT REQUIRED            6 OUTER ITERATIONS 
       AND A TOTAL OF          6 INNER ITERATIONS.
    ------------------------------------------------

 OUTPUT CONTROL FOR STRESS PERIOD    1   TIME STEP  692
    SAVE HEAD FOR ALL LAYERS
 SOLVING FOR ZETA FOR LAYER     1 ZONE     2

     605 UPPER PART EQS.       588 LOWER PART EQS.    BAND WIDTH + 1 =   40
 STRESS PERIOD=  1 TIMESTEP=692 LAYER=  1 ZONE=  2 ACTIVE CELLS= 1193 NUMBER OF EQUATIONS=    1193
 SOLVING FOR ZETA FOR LAYER     2 ZONE     2

     609 UPPER PART EQS.       612 LOWER PART EQS.    BAND WIDTH + 1 =   34
 STRESS PERIOD=  1 TIMESTEP=692 LAYER=  2 ZONE=  2 ACTIVE CELLS= 1221 NUMBER OF EQUATIONS=    1221
 UBUDSV SAVING "      ZETASRF  1" ON UNIT 55 AT TIME STEP692, STRESS PERIOD    1

 HEAD WILL BE SAVED ON UNIT   51 AT END OF TIME STEP  692, STRESS PERIOD    1
 
 SOLVING FOR HEAD 
                                                   Max.-Head-Change                         Max.-Flux-Residual
  Residual-Control   Outer-Iter.   Inner-Iter.     Column Row Layer    Maximum-Head-Change  Column Row Layer    Maximum-Flux-Residual          L2-NORM 
          0                 1           1            28   14     1       0.9299868873E-03      27   48    1         0.5324142605E+00      0.2806125147E+01
          0                 2           1            27   16     1       0.6132218983E-04      31   14    1         0.2000690369E-01      0.9466269318E-01
          0                 3           1            28   45     1       0.3250586541E-04      27   46    1         0.2799023799E-02      0.2520809818E-01
          0                 4           1            28   42     2       0.1774958858E-04      31   14    1         0.1355661553E-02      0.1664935207E-01
          0                 5           1            31   41     2       0.1489545907E-04      27   14    1         0.8853124586E-03      0.1410675546E-01
          0                 6           1            30   34     2       0.1258577043E-04      25   16    1         0.8382535092E-03      0.1261706396E-01
          0                 7           1            30   31     1       0.1203320059E-04      30   47    1         0.6296924812E-03      0.1127881643E-01
          0                 8           1            30   31     1       0.1078971000E-04      25   16    1         0.6445271575E-03      0.1020441376E-01
          0                 9           1            30   31     1       0.9831442965E-05      30   47    1         0.5026605027E-03      0.9177954275E-02

    ------------------------------------------------
       NWT REQUIRED            9 OUTER ITERATIONS 
       AND A TOTAL OF          9 INNER ITERATIONS.
    ------------------------------------------------

 OUTPUT CONTROL FOR STRESS PERIOD    1   TIME STEP  693
    SAVE HEAD FOR ALL LAYERS
 SOLVING FOR ZETA FOR LAYER     1 ZONE     2

     600 UPPER PART EQS.       602 LOWER PART EQS.    BAND WIDTH + 1 =   25
 STRESS PERIOD=  1 TIMESTEP=693 LAYER=  1 ZONE=  2 ACTIVE CELLS= 1202 NUMBER OF EQUATIONS=    1202
 SOLVING FOR ZETA FOR LAYER     2 ZONE     2

     612 UPPER PART EQS.       612 LOWER PART EQS.    BAND WIDTH + 1 =   34
 STRESS PERIOD=  1 TIMESTEP=693 LAYER=  2 ZONE=  2 ACTIVE CELLS= 1224 NUMBER OF EQUATIONS=    1224
 UBUDSV SAVING "      ZETASRF  1" ON UNIT 55 AT TIME STEP693, STRESS PERIOD    1

 HEAD WILL BE SAVED ON UNIT   51 AT END OF TIME STEP  693, STRESS PERIOD    1
 
 SOLVING FOR HEAD 
                                                   Max.-Head-Change                         Max.-Flux-Residual
  Residual-Control   Outer-Iter.   Inner-Iter.     Column Row Layer    Maximum-Head-Change  Column Row Layer    Maximum-Flux-Residual          L2-NORM 
          0                 1           1            48   33     1      -0.8479324560E-03      48   34    1        -0.4825329107E+00      0.3131983197E+01
          0                 2           1            44   31     1      -0.6775140566E-04      45   34    1        -0.1649029711E-01      0.9574601824E-01
          0                 3           1            42   32     2      -0.3795770414E-04      16   33    1        -0.2686981951E-02      0.2426502803E-01
          0                 4           1            43   30     1      -0.1546987204E-04      44   33    1        -0.1345055134E-02      0.1383264536E-01
          0                 5           1            42   32     2      -0.1487056529E-04      46   31    1        -0.8844209516E-03      0.1052696271E-01
          0                 6           1            44   33     1      -0.9473904202E-05      44   33    1        -0.7386557184E-03      0.8952309560E-02

    ------------------------------------------------
       NWT REQUIRED            6 OUTER ITERATIONS 
       AND A TOTAL OF          6 INNER ITERATIONS.
    ------------------------------------------------

 OUTPUT CONTROL FOR STRESS PERIOD    1   TIME STEP  694
    SAVE HEAD FOR ALL LAYERS
 SOLVING FOR ZETA FOR LAYER     1 ZONE     2

     584 UPPER PART EQS.       586 LOWER PART EQS.    BAND WIDTH + 1 =   25
 STRESS PERIOD=  1 TIMESTEP=694 LAYER=  1 ZONE=  2 ACTIVE CELLS= 1170 NUMBER OF EQUATIONS=    1170
 SOLVING FOR ZETA FOR LAYER     2 ZONE     2

     613 UPPER PART EQS.       612 LOWER PART EQS.    BAND WIDTH + 1 =   34
 STRESS PERIOD=  1 TIMESTEP=694 LAYER=  2 ZONE=  2 ACTIVE CELLS= 1225 NUMBER OF EQUATIONS=    1225
 UBUDSV SAVING "      ZETASRF  1" ON UNIT 55 AT TIME STEP694, STRESS PERIOD    1

 HEAD WILL BE SAVED ON UNIT   51 AT END OF TIME STEP  694, STRESS PERIOD    1
 
 SOLVING FOR HEAD 
                                                   Max.-Head-Change                         Max.-Flux-Residual
  Residual-Control   Outer-Iter.   Inner-Iter.     Column Row Layer    Maximum-Head-Change  Column Row Layer    Maximum-Flux-Residual          L2-NORM 
          0                 1           1            29   48     1      -0.8307285936E-03      28   48    1        -0.4828452529E+00      0.3351409609E+01
          0                 2           1            44   31     1       0.5647125438E-04      45   30    1         0.1517201034E-01      0.1071964603E+00
          0                 3           1            42   32     2       0.3365830449E-04      16   33    1         0.2378019617E-02      0.2693528715E-01
          0                 4           1            43   30     1       0.1355036439E-04      43   34    1         0.1145020183E-02      0.1331800624E-01
          0                 5           1            42   32     2       0.1344838028E-04      47   30    1         0.7718249324E-03      0.9000381243E-02
          0                 6           1            43   30     1       0.7536372070E-05      43   34    1         0.5756481100E-03      0.6896625614E-02

    ------------------------------------------------
       NWT REQUIRED            6 OUTER ITERATIONS 
       AND A TOTAL OF          6 INNER ITERATIONS.
    ------------------------------------------------

 OUTPUT CONTROL FOR STRESS PERIOD    1   TIME STEP  695
    SAVE HEAD FOR ALL LAYERS
 SOLVING FOR ZETA FOR LAYER     1 ZONE     2

     598 UPPER PART EQS.       596 LOWER PART EQS.    BAND WIDTH + 1 =   25
 STRESS PERIOD=  1 TIMESTEP=695 LAYER=  1 ZONE=  2 ACTIVE CELLS= 1194 NUMBER OF EQUATIONS=    1194
 SOLVING FOR ZETA FOR LAYER     2 ZONE     2

     613 UPPER PART EQS.       612 LOWER PART EQS.    BAND WIDTH + 1 =   34
 STRESS PERIOD=  1 TIMESTEP=695 LAYER=  2 ZONE=  2 ACTIVE CELLS= 1225 NUMBER OF EQUATIONS=    1225
 UBUDSV SAVING "      ZETASRF  1" ON UNIT 55 AT TIME STEP695, STRESS PERIOD    1

 HEAD WILL BE SAVED ON UNIT   51 AT END OF TIME STEP  695, STRESS PERIOD    1
 
 SOLVING FOR HEAD 
                                                   Max.-Head-Change                         Max.-Flux-Residual
  Residual-Control   Outer-Iter.   Inner-Iter.     Column Row Layer    Maximum-Head-Change  Column Row Layer    Maximum-Flux-Residual          L2-NORM 
          0                 1           1            29   14     1       0.8406164533E-03      13   35    1         0.5451781530E+00      0.2842920222E+01
          0                 2           1            27   16     1       0.5345697973E-04      31   14    1         0.1583234473E-01      0.8510909694E-01
          0                 3           1            28   45     1       0.2720032921E-04      30   47    1         0.2498379228E-02      0.2011108723E-01
          0                 4           1            28   42     2       0.1293369281E-04      28   49    1         0.1014991194E-02      0.1102700363E-01
          0                 5           1            28   41     1       0.1018395618E-04      30   47    1         0.8233138931E-03      0.8386256586E-02
          0                 6           1            28   40     2       0.7429439619E-05      28   49    1         0.5486219696E-03      0.7078686274E-02

    ------------------------------------------------
       NWT REQUIRED            6 OUTER ITERATIONS 
       AND A TOTAL OF          6 INNER ITERATIONS.
    ------------------------------------------------

 OUTPUT CONTROL FOR STRESS PERIOD    1   TIME STEP  696
    SAVE HEAD FOR ALL LAYERS
 SOLVING FOR ZETA FOR LAYER     1 ZONE     2

     606 UPPER PART EQS.       588 LOWER PART EQS.    BAND WIDTH + 1 =   39
 STRESS PERIOD=  1 TIMESTEP=696 LAYER=  1 ZONE=  2 ACTIVE CELLS= 1194 NUMBER OF EQUATIONS=    1194
 SOLVING FOR ZETA FOR LAYER     2 ZONE     2

     613 UPPER PART EQS.       612 LOWER PART EQS.    BAND WIDTH + 1 =   34
 STRESS PERIOD=  1 TIMESTEP=696 LAYER=  2 ZONE=  2 ACTIVE CELLS= 1225 NUMBER OF EQUATIONS=    1225
 UBUDSV SAVING "      ZETASRF  1" ON UNIT 55 AT TIME STEP696, STRESS PERIOD    1

 HEAD WILL BE SAVED ON UNIT   51 AT END OF TIME STEP  696, STRESS PERIOD    1
 
 SOLVING FOR HEAD 
                                                   Max.-Head-Change                         Max.-Flux-Residual
  Residual-Control   Outer-Iter.   Inner-Iter.     Column Row Layer    Maximum-Head-Change  Column Row Layer    Maximum-Flux-Residual          L2-NORM 
          0                 1           1            48   33     1      -0.8025017775E-03      35   48    1        -0.5436838964E+00      0.3537496315E+01
          0                 2           1            44   31     1      -0.5166319006E-04      45   34    1        -0.1547433969E-01      0.8562453585E-01
          0                 3           1            42   32     2      -0.2460027112E-04      46   31    1        -0.2141502719E-02      0.1747587940E-01
          0                 4           1            43   30     1      -0.1070629092E-04      16   33    1        -0.9601861500E-03      0.1011927213E-01
          0                 5           1            42   32     2      -0.9547504076E-05      46   31    1        -0.6636760623E-03      0.8135944310E-02

    ------------------------------------------------
       NWT REQUIRED            5 OUTER ITERATIONS 
       AND A TOTAL OF          5 INNER ITERATIONS.
    ------------------------------------------------

 OUTPUT CONTROL FOR STRESS PERIOD    1   TIME STEP  697
    SAVE HEAD FOR ALL LAYERS
 SOLVING FOR ZETA FOR LAYER     1 ZONE     2

     586 UPPER PART EQS.       584 LOWER PART EQS.    BAND WIDTH + 1 =   26
 STRESS PERIOD=  1 TIMESTEP=697 LAYER=  1 ZONE=  2 ACTIVE CELLS= 1170 NUMBER OF EQUATIONS=    1170
 SOLVING FOR ZETA FOR LAYER     2 ZONE     2

     613 UPPER PART EQS.       612 LOWER PART EQS.    BAND WIDTH + 1 =   34
 STRESS PERIOD=  1 TIMESTEP=697 LAYER=  2 ZONE=  2 ACTIVE CELLS= 1225 NUMBER OF EQUATIONS=    1225
 UBUDSV SAVING "      ZETASRF  1" ON UNIT 55 AT TIME STEP697, STRESS PERIOD    1

 HEAD WILL BE SAVED ON UNIT   51 AT END OF TIME STEP  697, STRESS PERIOD    1
 
 SOLVING FOR HEAD 
                                                   Max.-Head-Change                         Max.-Flux-Residual
  Residual-Control   Outer-Iter.   Inner-Iter.     Column Row Layer    Maximum-Head-Change  Column Row Layer    Maximum-Flux-Residual          L2-NORM 
          0                 1           1            28   14     1      -0.9112239133E-03      27   49    1         0.5440103601E+00      0.3981274904E+01
          0                 2           1            44   31     1       0.5632226543E-04      32   49    1         0.2162186126E-01      0.1205792818E+00
          0                 3           1            42   32     2       0.3155270754E-04      30   15    1        -0.2514866996E-02      0.2725296929E-01
          0                 4           1            43   30     1       0.1270989541E-04      43   34    1         0.1048212430E-02      0.1297321431E-01
          0                 5           1            42   32     2       0.1034643704E-04      46   31    1         0.6965129436E-03      0.7983648234E-02
          0                 6           1            43   30     1       0.5834257104E-05      44   33    1         0.4610737181E-03      0.5393780820E-02

    ------------------------------------------------
       NWT REQUIRED            6 OUTER ITERATIONS 
       AND A TOTAL OF          6 INNER ITERATIONS.
    ------------------------------------------------

 OUTPUT CONTROL FOR STRESS PERIOD    1   TIME STEP  698
    SAVE HEAD FOR ALL LAYERS
 SOLVING FOR ZETA FOR LAYER     1 ZONE     2

     601 UPPER PART EQS.       592 LOWER PART EQS.    BAND WIDTH + 1 =   31
 STRESS PERIOD=  1 TIMESTEP=698 LAYER=  1 ZONE=  2 ACTIVE CELLS= 1193 NUMBER OF EQUATIONS=    1193
 SOLVING FOR ZETA FOR LAYER     2 ZONE     2

     613 UPPER PART EQS.       612 LOWER PART EQS.    BAND WIDTH + 1 =   34
 STRESS PERIOD=  1 TIMESTEP=698 LAYER=  2 ZONE=  2 ACTIVE CELLS= 1225 NUMBER OF EQUATIONS=    1225
 UBUDSV SAVING "      ZETASRF  1" ON UNIT 55 AT TIME STEP698, STRESS PERIOD    1

 HEAD WILL BE SAVED ON UNIT   51 AT END OF TIME STEP  698, STRESS PERIOD    1
 
 SOLVING FOR HEAD 
                                                   Max.-Head-Change                         Max.-Flux-Residual
  Residual-Control   Outer-Iter.   Inner-Iter.     Column Row Layer    Maximum-Head-Change  Column Row Layer    Maximum-Flux-Residual          L2-NORM 
          0                 1           1            28   14     1       0.9222659554E-03      27   48    1         0.5268848000E+00      0.2629430861E+01
          0                 2           1            26   17     1       0.6557054209E-04      31   14    1         0.1979278778E-01      0.9641921523E-01
          0                 3           1            28   45     1       0.3374427597E-04      27   46    1         0.2702049588E-02      0.2731235514E-01
          0                 4           1            29   20     1       0.1839159831E-04      31   14    1         0.1482896553E-02      0.1773738505E-01
          0                 5           1            28   23     1       0.1603674785E-04      27   14    1         0.9581134370E-03      0.1497534337E-01
          0                 6           1            29   28     1       0.1312455977E-04      31   14    1         0.8705701166E-03      0.1335391354E-01
          0                 7           1            30   31     1       0.1270987554E-04      30   47    1         0.6395753308E-03      0.1196255309E-01
          0                 8           1            30   31     1       0.1153610679E-04      25   16    1         0.6558089463E-03      0.1080612366E-01
          0                 9           1            30   31     1       0.1037845001E-04      30   47    1         0.5161306585E-03      0.9732978446E-02
          0                10           1            30   31     1       0.9617348792E-05      25   16    1         0.5316815661E-03      0.8804705693E-02

    ------------------------------------------------
       NWT REQUIRED           10 OUTER ITERATIONS 
       AND A TOTAL OF         10 INNER ITERATIONS.
    ------------------------------------------------

 OUTPUT CONTROL FOR STRESS PERIOD    1   TIME STEP  699
    SAVE HEAD FOR ALL LAYERS
 SOLVING FOR ZETA FOR LAYER     1 ZONE     2

     603 UPPER PART EQS.       586 LOWER PART EQS.    BAND WIDTH + 1 =   35
 STRESS PERIOD=  1 TIMESTEP=699 LAYER=  1 ZONE=  2 ACTIVE CELLS= 1189 NUMBER OF EQUATIONS=    1189
 SOLVING FOR ZETA FOR LAYER     2 ZONE     2

     610 UPPER PART EQS.       612 LOWER PART EQS.    BAND WIDTH + 1 =   34
 STRESS PERIOD=  1 TIMESTEP=699 LAYER=  2 ZONE=  2 ACTIVE CELLS= 1222 NUMBER OF EQUATIONS=    1222
 UBUDSV SAVING "      ZETASRF  1" ON UNIT 55 AT TIME STEP699, STRESS PERIOD    1

 HEAD WILL BE SAVED ON UNIT   51 AT END OF TIME STEP  699, STRESS PERIOD    1
 
 SOLVING FOR HEAD 
                                                   Max.-Head-Change                         Max.-Flux-Residual
  Residual-Control   Outer-Iter.   Inner-Iter.     Column Row Layer    Maximum-Head-Change  Column Row Layer    Maximum-Flux-Residual          L2-NORM 
          0                 1           1            48   32     1      -0.8872313662E-03      14   28    1        -0.4786032523E+00      0.3367844575E+01
          0                 2           1            44   31     1      -0.8205800432E-04      45   32    1        -0.1791712959E-01      0.1050037752E+00
          0                 3           1            43   31     2      -0.4512558275E-04      47   30    1        -0.3557140780E-02      0.2732671694E-01
          0                 4           1            44   33     1      -0.1767635339E-04      44   33    1        -0.1643810084E-02      0.1599569046E-01
          0                 5           1            42   32     2      -0.1642651433E-04      47   30    1        -0.1213464570E-02      0.1222275023E-01
          0                 6           1            44   33     1      -0.1049741635E-04      44   33    1        -0.8849954094E-03      0.1038138052E-01
          0                 7           1            42   32     2      -0.1063657006E-04      46   31    1        -0.6976910092E-03      0.8987997872E-02
          0                 8           1            38   32     2      -0.7518286364E-05      44   33    1        -0.6133745401E-03      0.8076153298E-02

    ------------------------------------------------
       NWT REQUIRED            8 OUTER ITERATIONS 
       AND A TOTAL OF          8 INNER ITERATIONS.
    ------------------------------------------------

 OUTPUT CONTROL FOR STRESS PERIOD    1   TIME STEP  700
    SAVE HEAD FOR ALL LAYERS
 SOLVING FOR ZETA FOR LAYER     1 ZONE     2

     592 UPPER PART EQS.       587 LOWER PART EQS.    BAND WIDTH + 1 =   25
 STRESS PERIOD=  1 TIMESTEP=700 LAYER=  1 ZONE=  2 ACTIVE CELLS= 1179 NUMBER OF EQUATIONS=    1179
 SOLVING FOR ZETA FOR LAYER     2 ZONE     2

     612 UPPER PART EQS.       612 LOWER PART EQS.    BAND WIDTH + 1 =   34
 STRESS PERIOD=  1 TIMESTEP=700 LAYER=  2 ZONE=  2 ACTIVE CELLS= 1224 NUMBER OF EQUATIONS=    1224
 UBUDSV SAVING "      ZETASRF  1" ON UNIT 55 AT TIME STEP700, STRESS PERIOD    1

 HEAD WILL BE SAVED ON UNIT   51 AT END OF TIME STEP  700, STRESS PERIOD    1
 
 SOLVING FOR HEAD 
                                                   Max.-Head-Change                         Max.-Flux-Residual
  Residual-Control   Outer-Iter.   Inner-Iter.     Column Row Layer    Maximum-Head-Change  Column Row Layer    Maximum-Flux-Residual          L2-NORM 
          0                 1           1            48   32     1       0.8639671798E-03      14   27    1        -0.5371694379E+00      0.3731004954E+01
          0                 2           1            44   33     1       0.6927964839E-04      45   32    1         0.1735087153E-01      0.1132882525E+00
          0                 3           1            43   31     2       0.3413110632E-04      47   30    1         0.2941587855E-02      0.2538421786E-01
          0                 4           1            44   33     1       0.1252231865E-04      44   33    1         0.1288155946E-02      0.1202200809E-01
          0                 5           1            42   32     2       0.9982719077E-05      46   31    1         0.8214860974E-03      0.7486125644E-02

    ------------------------------------------------
       NWT REQUIRED            5 OUTER ITERATIONS 
       AND A TOTAL OF          5 INNER ITERATIONS.
    ------------------------------------------------

 OUTPUT CONTROL FOR STRESS PERIOD    1   TIME STEP  701
    SAVE HEAD FOR ALL LAYERS
 SOLVING FOR ZETA FOR LAYER     1 ZONE     2

     602 UPPER PART EQS.       582 LOWER PART EQS.    BAND WIDTH + 1 =   40
 STRESS PERIOD=  1 TIMESTEP=701 LAYER=  1 ZONE=  2 ACTIVE CELLS= 1184 NUMBER OF EQUATIONS=    1184
 SOLVING FOR ZETA FOR LAYER     2 ZONE     2

     613 UPPER PART EQS.       612 LOWER PART EQS.    BAND WIDTH + 1 =   34
 STRESS PERIOD=  1 TIMESTEP=701 LAYER=  2 ZONE=  2 ACTIVE CELLS= 1225 NUMBER OF EQUATIONS=    1225
 UBUDSV SAVING "      ZETASRF  1" ON UNIT 55 AT TIME STEP701, STRESS PERIOD    1

 HEAD WILL BE SAVED ON UNIT   51 AT END OF TIME STEP  701, STRESS PERIOD    1
 
 SOLVING FOR HEAD 
                                                   Max.-Head-Change                         Max.-Flux-Residual
  Residual-Control   Outer-Iter.   Inner-Iter.     Column Row Layer    Maximum-Head-Change  Column Row Layer    Maximum-Flux-Residual          L2-NORM 
          0                 1           1            29   14     1       0.8312589855E-03      35   48    1        -0.5378179638E+00      0.3148471005E+01
          0                 2           1            32   49     1      -0.5207875461E-04      32   49    1        -0.2265749600E-01      0.9299356159E-01
          0                 3           1            28   45     1       0.1924442109E-04      30   15    1         0.2140641434E-02      0.1835603213E-01
          0                 4           1            27   41     2       0.1029660015E-04      32   17    1         0.6514664828E-03      0.1028504601E-01
          0                 5           1            24   25     1       0.9487561761E-05      30   15    1         0.4960261968E-03      0.8349690109E-02

    ------------------------------------------------
       NWT REQUIRED            5 OUTER ITERATIONS 
       AND A TOTAL OF          5 INNER ITERATIONS.
    ------------------------------------------------

 OUTPUT CONTROL FOR STRESS PERIOD    1   TIME STEP  702
    SAVE HEAD FOR ALL LAYERS
 SOLVING FOR ZETA FOR LAYER     1 ZONE     2

     600 UPPER PART EQS.       591 LOWER PART EQS.    BAND WIDTH + 1 =   30
 STRESS PERIOD=  1 TIMESTEP=702 LAYER=  1 ZONE=  2 ACTIVE CELLS= 1191 NUMBER OF EQUATIONS=    1191
 SOLVING FOR ZETA FOR LAYER     2 ZONE     2

     613 UPPER PART EQS.       612 LOWER PART EQS.    BAND WIDTH + 1 =   34
 STRESS PERIOD=  1 TIMESTEP=702 LAYER=  2 ZONE=  2 ACTIVE CELLS= 1225 NUMBER OF EQUATIONS=    1225
 UBUDSV SAVING "      ZETASRF  1" ON UNIT 55 AT TIME STEP702, STRESS PERIOD    1

 HEAD WILL BE SAVED ON UNIT   51 AT END OF TIME STEP  702, STRESS PERIOD    1
 
 SOLVING FOR HEAD 
                                                   Max.-Head-Change                         Max.-Flux-Residual
  Residual-Control   Outer-Iter.   Inner-Iter.     Column Row Layer    Maximum-Head-Change  Column Row Layer    Maximum-Flux-Residual          L2-NORM 
          0                 1           1            48   33     1      -0.8006691691E-03      27   49    1         0.5368689649E+00      0.3594707053E+01
          0                 2           1            44   31     1      -0.5257499256E-04      32   49    1         0.1533152285E-01      0.9406722708E-01
          0                 3           1            42   32     2      -0.2777687147E-04      16   33    1        -0.2180588950E-02      0.2052145722E-01
          0                 4           1            43   30     1      -0.1056782796E-04      43   30    1        -0.9422437413E-03      0.1009923208E-01
          0                 5           1            16   33     1      -0.9638518685E-05      16   33    1        -0.6634006798E-03      0.7162809602E-02

    ------------------------------------------------
       NWT REQUIRED            5 OUTER ITERATIONS 
       AND A TOTAL OF          5 INNER ITERATIONS.
    ------------------------------------------------

 OUTPUT CONTROL FOR STRESS PERIOD    1   TIME STEP  703
    SAVE HEAD FOR ALL LAYERS
 SOLVING FOR ZETA FOR LAYER     1 ZONE     2

     584 UPPER PART EQS.       586 LOWER PART EQS.    BAND WIDTH + 1 =   25
 STRESS PERIOD=  1 TIMESTEP=703 LAYER=  1 ZONE=  2 ACTIVE CELLS= 1170 NUMBER OF EQUATIONS=    1170
 SOLVING FOR ZETA FOR LAYER     2 ZONE     2

     613 UPPER PART EQS.       612 LOWER PART EQS.    BAND WIDTH + 1 =   34
 STRESS PERIOD=  1 TIMESTEP=703 LAYER=  2 ZONE=  2 ACTIVE CELLS= 1225 NUMBER OF EQUATIONS=    1225
 UBUDSV SAVING "      ZETASRF  1" ON UNIT 55 AT TIME STEP703, STRESS PERIOD    1

 HEAD WILL BE SAVED ON UNIT   51 AT END OF TIME STEP  703, STRESS PERIOD    1
 
 SOLVING FOR HEAD 
                                                   Max.-Head-Change                         Max.-Flux-Residual
  Residual-Control   Outer-Iter.   Inner-Iter.     Column Row Layer    Maximum-Head-Change  Column Row Layer    Maximum-Flux-Residual          L2-NORM 
          0                 1           1            48   33     1       0.8368122460E-03      27   48    1         0.5226095382E+00      0.3327825093E+01
          0                 2           1            44   31     1       0.7118582790E-04      45   34    1         0.1648343003E-01      0.1063839398E+00
          0                 3           1            42   32     2       0.4303489366E-04      47   30    1         0.2897964628E-02      0.2706588532E-01
          0                 4           1            43   30     1       0.1581987625E-04      44   33    1         0.1398484988E-02      0.1478746738E-01
          0                 5           1            42   32     2       0.1615797652E-04      47   30    1         0.1032935070E-02      0.1103680853E-01
          0                 6           1            43   30     1       0.9017743232E-05      44   33    1         0.7430270307E-03      0.9215677951E-02

    ------------------------------------------------
       NWT REQUIRED            6 OUTER ITERATIONS 
       AND A TOTAL OF          6 INNER ITERATIONS.
    ------------------------------------------------

 OUTPUT CONTROL FOR STRESS PERIOD    1   TIME STEP  704
    SAVE HEAD FOR ALL LAYERS
 SOLVING FOR ZETA FOR LAYER     1 ZONE     2

     602 UPPER PART EQS.       590 LOWER PART EQS.    BAND WIDTH + 1 =   34
 STRESS PERIOD=  1 TIMESTEP=704 LAYER=  1 ZONE=  2 ACTIVE CELLS= 1192 NUMBER OF EQUATIONS=    1192
 SOLVING FOR ZETA FOR LAYER     2 ZONE     2

     613 UPPER PART EQS.       612 LOWER PART EQS.    BAND WIDTH + 1 =   34
 STRESS PERIOD=  1 TIMESTEP=704 LAYER=  2 ZONE=  2 ACTIVE CELLS= 1225 NUMBER OF EQUATIONS=    1225
 UBUDSV SAVING "      ZETASRF  1" ON UNIT 55 AT TIME STEP704, STRESS PERIOD    1

 HEAD WILL BE SAVED ON UNIT   51 AT END OF TIME STEP  704, STRESS PERIOD    1
 
 SOLVING FOR HEAD 
                                                   Max.-Head-Change                         Max.-Flux-Residual
  Residual-Control   Outer-Iter.   Inner-Iter.     Column Row Layer    Maximum-Head-Change  Column Row Layer    Maximum-Flux-Residual          L2-NORM 
          0                 1           1            29   14     1       0.8316009326E-03      34   48    1        -0.4777879951E+00      0.2500583276E+01
          0                 2           1            27   16     1       0.5305796207E-04      31   14    1         0.1569397787E-01      0.7777813249E-01
          0                 3           1            29   44     1       0.2808058981E-04      30   47    1         0.2521796689E-02      0.2079847502E-01
          0                 4           1            28   21     1       0.1584366797E-04      28   49    1         0.1106956033E-02      0.1376067720E-01
          0                 5           1            29   39     2       0.1282728411E-04      30   47    1         0.1008923781E-02      0.1150824467E-01
          0                 6           1            29   26     1       0.1027138784E-04      28   49    1         0.7047983111E-03      0.1021020016E-01
          0                 7           1            29   31     2       0.9949617822E-05      30   47    1         0.6730969650E-03      0.9096692823E-02

    ------------------------------------------------
       NWT REQUIRED            7 OUTER ITERATIONS 
       AND A TOTAL OF          7 INNER ITERATIONS.
    ------------------------------------------------

 OUTPUT CONTROL FOR STRESS PERIOD    1   TIME STEP  705
    SAVE HEAD FOR ALL LAYERS
 SOLVING FOR ZETA FOR LAYER     1 ZONE     2

     598 UPPER PART EQS.       602 LOWER PART EQS.    BAND WIDTH + 1 =   25
 STRESS PERIOD=  1 TIMESTEP=705 LAYER=  1 ZONE=  2 ACTIVE CELLS= 1200 NUMBER OF EQUATIONS=    1200
 SOLVING FOR ZETA FOR LAYER     2 ZONE     2

     613 UPPER PART EQS.       612 LOWER PART EQS.    BAND WIDTH + 1 =   34
 STRESS PERIOD=  1 TIMESTEP=705 LAYER=  2 ZONE=  2 ACTIVE CELLS= 1225 NUMBER OF EQUATIONS=    1225
 UBUDSV SAVING "      ZETASRF  1" ON UNIT 55 AT TIME STEP705, STRESS PERIOD    1

 HEAD WILL BE SAVED ON UNIT   51 AT END OF TIME STEP  705, STRESS PERIOD    1
 
 SOLVING FOR HEAD 
                                                   Max.-Head-Change                         Max.-Flux-Residual
  Residual-Control   Outer-Iter.   Inner-Iter.     Column Row Layer    Maximum-Head-Change  Column Row Layer    Maximum-Flux-Residual          L2-NORM 
          0                 1           1            48   34     1      -0.9128754501E-03      48   35    1        -0.5338066944E+00      0.3660091615E+01
          0                 2           1            44   29     1      -0.7090170606E-04      45   36    1        -0.1695380031E-01      0.1068096517E+00
          0                 3           1            42   32     2      -0.4362653496E-04      47   34    1        -0.2935066963E-02      0.2923411441E-01
          0                 4           1            43   30     1      -0.1766055605E-04      44   29    1        -0.1465742915E-02      0.1775083891E-01
          0                 5           1            16   29     1      -0.1841712874E-04      16   29    1        -0.1079736924E-02      0.1391900972E-01
          0                 6           1            20   33     1      -0.1011809776E-04      44   29    1        -0.8427958055E-03      0.1195513597E-01
          0                 7           1            21   31     2      -0.1313465449E-04      41   31    2        -0.6293790298E-03      0.1036901065E-01
          0                 8           1            38   32     2      -0.7539622944E-05      44   29    1        -0.6229340549E-03      0.9383086497E-02

    ------------------------------------------------
       NWT REQUIRED            8 OUTER ITERATIONS 
       AND A TOTAL OF          8 INNER ITERATIONS.
    ------------------------------------------------

 OUTPUT CONTROL FOR STRESS PERIOD    1   TIME STEP  706
    SAVE HEAD FOR ALL LAYERS
 SOLVING FOR ZETA FOR LAYER     1 ZONE     2

     586 UPPER PART EQS.       580 LOWER PART EQS.    BAND WIDTH + 1 =   30
 STRESS PERIOD=  1 TIMESTEP=706 LAYER=  1 ZONE=  2 ACTIVE CELLS= 1166 NUMBER OF EQUATIONS=    1166
 SOLVING FOR ZETA FOR LAYER     2 ZONE     2

     613 UPPER PART EQS.       612 LOWER PART EQS.    BAND WIDTH + 1 =   34
 STRESS PERIOD=  1 TIMESTEP=706 LAYER=  2 ZONE=  2 ACTIVE CELLS= 1225 NUMBER OF EQUATIONS=    1225
 UBUDSV SAVING "      ZETASRF  1" ON UNIT 55 AT TIME STEP706, STRESS PERIOD    1

 HEAD WILL BE SAVED ON UNIT   51 AT END OF TIME STEP  706, STRESS PERIOD    1
 
 SOLVING FOR HEAD 
                                                   Max.-Head-Change                         Max.-Flux-Residual
  Residual-Control   Outer-Iter.   Inner-Iter.     Column Row Layer    Maximum-Head-Change  Column Row Layer    Maximum-Flux-Residual          L2-NORM 
          0                 1           1            48   34     1       0.9238644431E-03      35   13    1         0.5352261480E+00      0.3858927931E+01
          0                 2           1            44   31     1       0.8844219366E-04      45   30    1         0.1754086062E-01      0.1311840117E+00
          0                 3           1            42   32     2       0.5502987326E-04      47   30    1         0.3787779447E-02      0.3779111899E-01
          0                 4           1            44   31     1       0.2053754276E-04      45   36    1         0.1904424217E-02      0.2038362089E-01
          0                 5           1            42   32     2       0.2095640368E-04      47   34    1         0.1322342123E-02      0.1400253017E-01
          0                 6           1            44   31     1       0.1041604731E-04      44   33    1         0.9456121592E-03      0.1070673116E-01
          0                 7           1            42   32     2       0.1321634923E-04      47   34    1         0.6626679618E-03      0.8579305817E-02
          0                 8           1            38   32     2       0.6230954681E-05      44   33    1         0.5761300559E-03      0.7392321489E-02

    ------------------------------------------------
       NWT REQUIRED            8 OUTER ITERATIONS 
       AND A TOTAL OF          8 INNER ITERATIONS.
    ------------------------------------------------

 OUTPUT CONTROL FOR STRESS PERIOD    1   TIME STEP  707
    SAVE HEAD FOR ALL LAYERS
 SOLVING FOR ZETA FOR LAYER     1 ZONE     2

     591 UPPER PART EQS.       600 LOWER PART EQS.    BAND WIDTH + 1 =   29
 STRESS PERIOD=  1 TIMESTEP=707 LAYER=  1 ZONE=  2 ACTIVE CELLS= 1191 NUMBER OF EQUATIONS=    1191
 SOLVING FOR ZETA FOR LAYER     2 ZONE     2

     609 UPPER PART EQS.       612 LOWER PART EQS.    BAND WIDTH + 1 =   34
 STRESS PERIOD=  1 TIMESTEP=707 LAYER=  2 ZONE=  2 ACTIVE CELLS= 1221 NUMBER OF EQUATIONS=    1221
 UBUDSV SAVING "      ZETASRF  1" ON UNIT 55 AT TIME STEP707, STRESS PERIOD    1

 HEAD WILL BE SAVED ON UNIT   51 AT END OF TIME STEP  707, STRESS PERIOD    1
 
 SOLVING FOR HEAD 
                                                   Max.-Head-Change                         Max.-Flux-Residual
  Residual-Control   Outer-Iter.   Inner-Iter.     Column Row Layer    Maximum-Head-Change  Column Row Layer    Maximum-Flux-Residual          L2-NORM 
          0                 1           1            29   14     1       0.7893266076E-03      27   14    1        -0.5336485924E+00      0.2908849264E+01
          0                 2           1            27   16     1       0.4421015429E-04      27   14    1        -0.1389059727E-01      0.7290385849E-01
          0                 3           1            31   18     1       0.2692614893E-04      30   47    1         0.2718932552E-02      0.1889061948E-01
          0                 4           1            30   42     2       0.1305716105E-04      28   49    1         0.1116770527E-02      0.1163362706E-01
          0                 5           1            31   21     2       0.1135524881E-04      30   47    1         0.9505842627E-03      0.9500149128E-02
          0                 6           1            29   24     1       0.7802563450E-05      28   49    1         0.7108838851E-03      0.8315015955E-02

    ------------------------------------------------
       NWT REQUIRED            6 OUTER ITERATIONS 
       AND A TOTAL OF          6 INNER ITERATIONS.
    ------------------------------------------------

 OUTPUT CONTROL FOR STRESS PERIOD    1   TIME STEP  708
    SAVE HEAD FOR ALL LAYERS
 SOLVING FOR ZETA FOR LAYER     1 ZONE     2

     601 UPPER PART EQS.       590 LOWER PART EQS.    BAND WIDTH + 1 =   31
 STRESS PERIOD=  1 TIMESTEP=708 LAYER=  1 ZONE=  2 ACTIVE CELLS= 1191 NUMBER OF EQUATIONS=    1191
 SOLVING FOR ZETA FOR LAYER     2 ZONE     2

     613 UPPER PART EQS.       612 LOWER PART EQS.    BAND WIDTH + 1 =   34
 STRESS PERIOD=  1 TIMESTEP=708 LAYER=  2 ZONE=  2 ACTIVE CELLS= 1225 NUMBER OF EQUATIONS=    1225
 UBUDSV SAVING "      ZETASRF  1" ON UNIT 55 AT TIME STEP708, STRESS PERIOD    1

 HEAD WILL BE SAVED ON UNIT   51 AT END OF TIME STEP  708, STRESS PERIOD    1
 
 SOLVING FOR HEAD 
                                                   Max.-Head-Change                         Max.-Flux-Residual
  Residual-Control   Outer-Iter.   Inner-Iter.     Column Row Layer    Maximum-Head-Change  Column Row Layer    Maximum-Flux-Residual          L2-NORM 
          0                 1           1            48   33     1      -0.7931745218E-03      27   14    1         0.5192184163E+00      0.3555370066E+01
          0                 2           1            44   31     1      -0.5139418325E-04      45   34    1        -0.1481661954E-01      0.8826227994E-01
          0                 3           1            42   32     2      -0.3004128613E-04      16   33    1        -0.2032245998E-02      0.2005260043E-01
          0                 4           1            18   32     2      -0.1154697402E-04      43   30    1        -0.9326344864E-03      0.1094368541E-01
          0                 5           1            16   33     1      -0.1094974722E-04      16   33    1        -0.7245414685E-03      0.7695048866E-02
          0                 6           1            18   32     2      -0.6211269145E-05      14   31    1        -0.4602248481E-03      0.6100932346E-02

    ------------------------------------------------
       NWT REQUIRED            6 OUTER ITERATIONS 
       AND A TOTAL OF          6 INNER ITERATIONS.
    ------------------------------------------------

 OUTPUT CONTROL FOR STRESS PERIOD    1   TIME STEP  709
    SAVE HEAD FOR ALL LAYERS
 SOLVING FOR ZETA FOR LAYER     1 ZONE     2

     584 UPPER PART EQS.       582 LOWER PART EQS.    BAND WIDTH + 1 =   24
 STRESS PERIOD=  1 TIMESTEP=709 LAYER=  1 ZONE=  2 ACTIVE CELLS= 1166 NUMBER OF EQUATIONS=    1166
 SOLVING FOR ZETA FOR LAYER     2 ZONE     2

     613 UPPER PART EQS.       612 LOWER PART EQS.    BAND WIDTH + 1 =   34
 STRESS PERIOD=  1 TIMESTEP=709 LAYER=  2 ZONE=  2 ACTIVE CELLS= 1225 NUMBER OF EQUATIONS=    1225
 UBUDSV SAVING "      ZETASRF  1" ON UNIT 55 AT TIME STEP709, STRESS PERIOD    1

 HEAD WILL BE SAVED ON UNIT   51 AT END OF TIME STEP  709, STRESS PERIOD    1
 
 SOLVING FOR HEAD 
                                                   Max.-Head-Change                         Max.-Flux-Residual
  Residual-Control   Outer-Iter.   Inner-Iter.     Column Row Layer    Maximum-Head-Change  Column Row Layer    Maximum-Flux-Residual          L2-NORM 
          0                 1           1            48   33     1       0.8290011732E-03      28   48    1        -0.4733968453E+00      0.3332536480E+01
          0                 2           1            44   31     1       0.7141170422E-04      45   34    1         0.1633559962E-01      0.1101664833E+00
          0                 3           1            42   32     2       0.4229031700E-04      47   30    1         0.2990840199E-02      0.2858183496E-01
          0                 4           1            43   30     1       0.1680478374E-04      44   33    1         0.1456085576E-02      0.1583495860E-01
          0                 5           1            42   32     2       0.1591827978E-04      47   30    1         0.1111719692E-02      0.1155923878E-01
          0                 6           1            43   30     1       0.9293236900E-05      44   33    1         0.7569325954E-03      0.9367836910E-02

    ------------------------------------------------
       NWT REQUIRED            6 OUTER ITERATIONS 
       AND A TOTAL OF          6 INNER ITERATIONS.
    ------------------------------------------------

 OUTPUT CONTROL FOR STRESS PERIOD    1   TIME STEP  710
    SAVE HEAD FOR ALL LAYERS
 SOLVING FOR ZETA FOR LAYER     1 ZONE     2

     606 UPPER PART EQS.       588 LOWER PART EQS.    BAND WIDTH + 1 =   39
 STRESS PERIOD=  1 TIMESTEP=710 LAYER=  1 ZONE=  2 ACTIVE CELLS= 1194 NUMBER OF EQUATIONS=    1194
 SOLVING FOR ZETA FOR LAYER     2 ZONE     2

     613 UPPER PART EQS.       612 LOWER PART EQS.    BAND WIDTH + 1 =   34
 STRESS PERIOD=  1 TIMESTEP=710 LAYER=  2 ZONE=  2 ACTIVE CELLS= 1225 NUMBER OF EQUATIONS=    1225
 UBUDSV SAVING "      ZETASRF  1" ON UNIT 55 AT TIME STEP710, STRESS PERIOD    1

 HEAD WILL BE SAVED ON UNIT   51 AT END OF TIME STEP  710, STRESS PERIOD    1
 
 SOLVING FOR HEAD 
                                                   Max.-Head-Change                         Max.-Flux-Residual
  Residual-Control   Outer-Iter.   Inner-Iter.     Column Row Layer    Maximum-Head-Change  Column Row Layer    Maximum-Flux-Residual          L2-NORM 
          0                 1           1            29   14     1       0.8252018626E-03      13   35    1         0.5340936330E+00      0.2833472111E+01
          0                 2           1            27   16     1       0.5037154282E-04      31   14    1         0.1607656541E-01      0.8463743884E-01
          0                 3           1            28   45     1       0.2674667284E-04      30   47    1         0.2498657328E-02      0.2057179598E-01
          0                 4           1            29   20     1       0.1267334295E-04      28   49    1         0.1019720764E-02      0.1138444532E-01
          0                 5           1            29   44     1       0.9386178542E-05      30   47    1         0.8658630408E-03      0.8106226124E-02

    ------------------------------------------------
       NWT REQUIRED            5 OUTER ITERATIONS 
       AND A TOTAL OF          5 INNER ITERATIONS.
    ------------------------------------------------

 OUTPUT CONTROL FOR STRESS PERIOD    1   TIME STEP  711
    SAVE HEAD FOR ALL LAYERS
 SOLVING FOR ZETA FOR LAYER     1 ZONE     2

     602 UPPER PART EQS.       592 LOWER PART EQS.    BAND WIDTH + 1 =   31
 STRESS PERIOD=  1 TIMESTEP=711 LAYER=  1 ZONE=  2 ACTIVE CELLS= 1194 NUMBER OF EQUATIONS=    1194
 SOLVING FOR ZETA FOR LAYER     2 ZONE     2

     611 UPPER PART EQS.       612 LOWER PART EQS.    BAND WIDTH + 1 =   34
 STRESS PERIOD=  1 TIMESTEP=711 LAYER=  2 ZONE=  2 ACTIVE CELLS= 1223 NUMBER OF EQUATIONS=    1223
 UBUDSV SAVING "      ZETASRF  1" ON UNIT 55 AT TIME STEP711, STRESS PERIOD    1

 HEAD WILL BE SAVED ON UNIT   51 AT END OF TIME STEP  711, STRESS PERIOD    1
 
 SOLVING FOR HEAD 
                                                   Max.-Head-Change                         Max.-Flux-Residual
  Residual-Control   Outer-Iter.   Inner-Iter.     Column Row Layer    Maximum-Head-Change  Column Row Layer    Maximum-Flux-Residual          L2-NORM 
          0                 1           1            48   33     1      -0.7495087707E-03      35   48    1        -0.5317333030E+00      0.3695102062E+01
          0                 2           1            44   31     1      -0.3830243158E-04      45   34    1        -0.1385402708E-01      0.8012746290E-01
          0                 3           1            42   32     2      -0.1953537683E-04      46   31    1        -0.1533847079E-02      0.1567319908E-01
          0                 4           1            43   30     1      -0.9504641712E-05      43   30    1        -0.7787450156E-03      0.9199177927E-02

    ------------------------------------------------
       NWT REQUIRED            4 OUTER ITERATIONS 
       AND A TOTAL OF          4 INNER ITERATIONS.
    ------------------------------------------------

 OUTPUT CONTROL FOR STRESS PERIOD    1   TIME STEP  712
    SAVE HEAD FOR ALL LAYERS
 SOLVING FOR ZETA FOR LAYER     1 ZONE     2

     590 UPPER PART EQS.       580 LOWER PART EQS.    BAND WIDTH + 1 =   31
 STRESS PERIOD=  1 TIMESTEP=712 LAYER=  1 ZONE=  2 ACTIVE CELLS= 1170 NUMBER OF EQUATIONS=    1170
 SOLVING FOR ZETA FOR LAYER     2 ZONE     2

     611 UPPER PART EQS.       612 LOWER PART EQS.    BAND WIDTH + 1 =   34
 STRESS PERIOD=  1 TIMESTEP=712 LAYER=  2 ZONE=  2 ACTIVE CELLS= 1223 NUMBER OF EQUATIONS=    1223
 UBUDSV SAVING "      ZETASRF  1" ON UNIT 55 AT TIME STEP712, STRESS PERIOD    1

 HEAD WILL BE SAVED ON UNIT   51 AT END OF TIME STEP  712, STRESS PERIOD    1
 
 SOLVING FOR HEAD 
                                                   Max.-Head-Change                         Max.-Flux-Residual
  Residual-Control   Outer-Iter.   Inner-Iter.     Column Row Layer    Maximum-Head-Change  Column Row Layer    Maximum-Flux-Residual          L2-NORM 
          0                 1           1            28   14     1      -0.8923771788E-03      27   13    1         0.5310248637E+00      0.3549676760E+01
          0                 2           1            44   31     1       0.7083112417E-04      32   49    1         0.2059701390E-01      0.1265223059E+00
          0                 3           1            42   32     2       0.3940042720E-04      47   30    1         0.2983499748E-02      0.3147102954E-01
          0                 4           1            43   30     1       0.1733822003E-04      44   33    1         0.1477216509E-02      0.1606524821E-01
          0                 5           1            42   32     2       0.1600098157E-04      47   30    1         0.1127714375E-02      0.1094000597E-01
          0                 6           1            43   30     1       0.9486606784E-05      44   33    1         0.7555214799E-03      0.8385844705E-02

    ------------------------------------------------
       NWT REQUIRED            6 OUTER ITERATIONS 
       AND A TOTAL OF          6 INNER ITERATIONS.
    ------------------------------------------------

 OUTPUT CONTROL FOR STRESS PERIOD    1   TIME STEP  713
    SAVE HEAD FOR ALL LAYERS
 SOLVING FOR ZETA FOR LAYER     1 ZONE     2

     594 UPPER PART EQS.       594 LOWER PART EQS.    BAND WIDTH + 1 =   23
 STRESS PERIOD=  1 TIMESTEP=713 LAYER=  1 ZONE=  2 ACTIVE CELLS= 1188 NUMBER OF EQUATIONS=    1188
 SOLVING FOR ZETA FOR LAYER     2 ZONE     2

     611 UPPER PART EQS.       612 LOWER PART EQS.    BAND WIDTH + 1 =   34
 STRESS PERIOD=  1 TIMESTEP=713 LAYER=  2 ZONE=  2 ACTIVE CELLS= 1223 NUMBER OF EQUATIONS=    1223
 UBUDSV SAVING "      ZETASRF  1" ON UNIT 55 AT TIME STEP713, STRESS PERIOD    1

 HEAD WILL BE SAVED ON UNIT   51 AT END OF TIME STEP  713, STRESS PERIOD    1
 
 SOLVING FOR HEAD 
                                                   Max.-Head-Change                         Max.-Flux-Residual
  Residual-Control   Outer-Iter.   Inner-Iter.     Column Row Layer    Maximum-Head-Change  Column Row Layer    Maximum-Flux-Residual          L2-NORM 
          0                 1           1            28   14     1       0.9004494301E-03      27   48    1         0.5159407157E+00      0.2973172235E+01
          0                 2           1            26   17     1       0.6679118819E-04      31   14    1         0.1959464257E-01      0.1031728542E+00
          0                 3           1            28   45     1       0.3494746932E-04      29   16    1         0.2683971247E-02      0.2677493970E-01
          0                 4           1            28   42     2       0.1654556052E-04      31   14    1         0.1436375626E-02      0.1435194923E-01
          0                 5           1            28   43     1       0.1210456822E-04      27   14    1         0.8690141347E-03      0.1027033638E-01
          0                 6           1            28   42     2       0.8909760217E-05      31   14    1         0.6607632843E-03      0.8194183323E-02

    ------------------------------------------------
       NWT REQUIRED            6 OUTER ITERATIONS 
       AND A TOTAL OF          6 INNER ITERATIONS.
    ------------------------------------------------

 OUTPUT CONTROL FOR STRESS PERIOD    1   TIME STEP  714
    SAVE HEAD FOR ALL LAYERS
 SOLVING FOR ZETA FOR LAYER     1 ZONE     2

     598 UPPER PART EQS.       598 LOWER PART EQS.    BAND WIDTH + 1 =   25
 STRESS PERIOD=  1 TIMESTEP=714 LAYER=  1 ZONE=  2 ACTIVE CELLS= 1196 NUMBER OF EQUATIONS=    1196
 SOLVING FOR ZETA FOR LAYER     2 ZONE     2

     613 UPPER PART EQS.       612 LOWER PART EQS.    BAND WIDTH + 1 =   34
 STRESS PERIOD=  1 TIMESTEP=714 LAYER=  2 ZONE=  2 ACTIVE CELLS= 1225 NUMBER OF EQUATIONS=    1225
 UBUDSV SAVING "      ZETASRF  1" ON UNIT 55 AT TIME STEP714, STRESS PERIOD    1

 HEAD WILL BE SAVED ON UNIT   51 AT END OF TIME STEP  714, STRESS PERIOD    1
 
 SOLVING FOR HEAD 
                                                   Max.-Head-Change                         Max.-Flux-Residual
  Residual-Control   Outer-Iter.   Inner-Iter.     Column Row Layer    Maximum-Head-Change  Column Row Layer    Maximum-Flux-Residual          L2-NORM 
          0                 1           1            32   13     1       0.7253238415E-03      48   34    1        -0.4696213394E+00      0.3221439046E+01
          0                 2           1            29   16     1      -0.2903576585E-04      29   14    1         0.1275144551E-01      0.7332860365E-01
          0                 3           1            31   46     1      -0.1063491504E-04      31   46    1        -0.1173812503E-02      0.1204154138E-01
          0                 4           1            24   20     2      -0.5878421010E-05      17   40    1        -0.4482219484E-03      0.5668048076E-02

    ------------------------------------------------
       NWT REQUIRED            4 OUTER ITERATIONS 
       AND A TOTAL OF          4 INNER ITERATIONS.
    ------------------------------------------------

 OUTPUT CONTROL FOR STRESS PERIOD    1   TIME STEP  715
    SAVE HEAD FOR ALL LAYERS
 SOLVING FOR ZETA FOR LAYER     1 ZONE     2

     578 UPPER PART EQS.       584 LOWER PART EQS.    BAND WIDTH + 1 =   27
 STRESS PERIOD=  1 TIMESTEP=715 LAYER=  1 ZONE=  2 ACTIVE CELLS= 1162 NUMBER OF EQUATIONS=    1162
 SOLVING FOR ZETA FOR LAYER     2 ZONE     2

     613 UPPER PART EQS.       612 LOWER PART EQS.    BAND WIDTH + 1 =   34
 STRESS PERIOD=  1 TIMESTEP=715 LAYER=  2 ZONE=  2 ACTIVE CELLS= 1225 NUMBER OF EQUATIONS=    1225
 UBUDSV SAVING "      ZETASRF  1" ON UNIT 55 AT TIME STEP715, STRESS PERIOD    1

 HEAD WILL BE SAVED ON UNIT   51 AT END OF TIME STEP  715, STRESS PERIOD    1
 
 SOLVING FOR HEAD 
                                                   Max.-Head-Change                         Max.-Flux-Residual
  Residual-Control   Outer-Iter.   Inner-Iter.     Column Row Layer    Maximum-Head-Change  Column Row Layer    Maximum-Flux-Residual          L2-NORM 
          0                 1           1            29   48     1      -0.7605062015E-03      14   27    1        -0.5283017141E+00      0.3492438792E+01
          0                 2           1            30   49     1       0.3037705769E-04      26   49    1        -0.1371775651E-01      0.8033675035E-01
          0                 3           1            42   32     2       0.9112111783E-05      34   47    1         0.1116073482E-02      0.1265733597E-01

    ------------------------------------------------
       NWT REQUIRED            3 OUTER ITERATIONS 
       AND A TOTAL OF          3 INNER ITERATIONS.
    ------------------------------------------------

 OUTPUT CONTROL FOR STRESS PERIOD    1   TIME STEP  716
    SAVE HEAD FOR ALL LAYERS
 SOLVING FOR ZETA FOR LAYER     1 ZONE     2

     594 UPPER PART EQS.       588 LOWER PART EQS.    BAND WIDTH + 1 =   28
 STRESS PERIOD=  1 TIMESTEP=716 LAYER=  1 ZONE=  2 ACTIVE CELLS= 1182 NUMBER OF EQUATIONS=    1182
 SOLVING FOR ZETA FOR LAYER     2 ZONE     2

     613 UPPER PART EQS.       612 LOWER PART EQS.    BAND WIDTH + 1 =   34
 STRESS PERIOD=  1 TIMESTEP=716 LAYER=  2 ZONE=  2 ACTIVE CELLS= 1225 NUMBER OF EQUATIONS=    1225
 UBUDSV SAVING "      ZETASRF  1" ON UNIT 55 AT TIME STEP716, STRESS PERIOD    1

 HEAD WILL BE SAVED ON UNIT   51 AT END OF TIME STEP  716, STRESS PERIOD    1
 
 SOLVING FOR HEAD 
                                                   Max.-Head-Change                         Max.-Flux-Residual
  Residual-Control   Outer-Iter.   Inner-Iter.     Column Row Layer    Maximum-Head-Change  Column Row Layer    Maximum-Flux-Residual          L2-NORM 
          0                 1           1            29   48     1       0.7822952880E-03      35   13    1         0.5304288115E+00      0.3258030781E+01
          0                 2           1            32   49     1      -0.4595390103E-04      32   49    1        -0.2093714282E-01      0.8349507881E-01
          0                 3           1            26   44     2       0.1558651030E-04      30   15    1         0.1641519031E-02      0.1645392001E-01
          0                 4           1            24   23     1       0.9782202143E-05      44   29    1         0.5604757286E-03      0.9736963533E-02

    ------------------------------------------------
       NWT REQUIRED            4 OUTER ITERATIONS 
       AND A TOTAL OF          4 INNER ITERATIONS.
    ------------------------------------------------

 OUTPUT CONTROL FOR STRESS PERIOD    1   TIME STEP  717
    SAVE HEAD FOR ALL LAYERS
 SOLVING FOR ZETA FOR LAYER     1 ZONE     2

     593 UPPER PART EQS.       598 LOWER PART EQS.    BAND WIDTH + 1 =   29
 STRESS PERIOD=  1 TIMESTEP=717 LAYER=  1 ZONE=  2 ACTIVE CELLS= 1191 NUMBER OF EQUATIONS=    1191
 SOLVING FOR ZETA FOR LAYER     2 ZONE     2

     613 UPPER PART EQS.       612 LOWER PART EQS.    BAND WIDTH + 1 =   34
 STRESS PERIOD=  1 TIMESTEP=717 LAYER=  2 ZONE=  2 ACTIVE CELLS= 1225 NUMBER OF EQUATIONS=    1225
 UBUDSV SAVING "      ZETASRF  1" ON UNIT 55 AT TIME STEP717, STRESS PERIOD    1

 HEAD WILL BE SAVED ON UNIT   51 AT END OF TIME STEP  717, STRESS PERIOD    1
 
 SOLVING FOR HEAD 
                                                   Max.-Head-Change                         Max.-Flux-Residual
  Residual-Control   Outer-Iter.   Inner-Iter.     Column Row Layer    Maximum-Head-Change  Column Row Layer    Maximum-Flux-Residual          L2-NORM 
          0                 1           1            35   14     1       0.7318755660E-03      27   49    1         0.5325756657E+00      0.3532434159E+01
          0                 2           1            29   16     1      -0.3264547028E-04      32   49    1         0.1554002906E-01      0.8020066206E-01
          0                 3           1            27   45     2      -0.1353083122E-04      29   43    2        -0.1211503387E-02      0.1389034706E-01
          0                 4           1            23   19     2      -0.7143140673E-05      25   19    2        -0.4961379205E-03      0.6857143385E-02

    ------------------------------------------------
       NWT REQUIRED            4 OUTER ITERATIONS 
       AND A TOTAL OF          4 INNER ITERATIONS.
    ------------------------------------------------

 OUTPUT CONTROL FOR STRESS PERIOD    1   TIME STEP  718
    SAVE HEAD FOR ALL LAYERS
 SOLVING FOR ZETA FOR LAYER     1 ZONE     2

     593 UPPER PART EQS.       576 LOWER PART EQS.    BAND WIDTH + 1 =   40
 STRESS PERIOD=  1 TIMESTEP=718 LAYER=  1 ZONE=  2 ACTIVE CELLS= 1169 NUMBER OF EQUATIONS=    1169
 SOLVING FOR ZETA FOR LAYER     2 ZONE     2

     613 UPPER PART EQS.       612 LOWER PART EQS.    BAND WIDTH + 1 =   34
 STRESS PERIOD=  1 TIMESTEP=718 LAYER=  2 ZONE=  2 ACTIVE CELLS= 1225 NUMBER OF EQUATIONS=    1225
 UBUDSV SAVING "      ZETASRF  1" ON UNIT 55 AT TIME STEP718, STRESS PERIOD    1

 HEAD WILL BE SAVED ON UNIT   51 AT END OF TIME STEP  718, STRESS PERIOD    1
 
 SOLVING FOR HEAD 
                                                   Max.-Head-Change                         Max.-Flux-Residual
  Residual-Control   Outer-Iter.   Inner-Iter.     Column Row Layer    Maximum-Head-Change  Column Row Layer    Maximum-Flux-Residual          L2-NORM 
          0                 1           1            29   48     1      -0.7103155121E-03      27   48    1         0.5120087530E+00      0.3482383326E+01
          0                 2           1            45   30     1       0.3975701187E-04      26   49    1        -0.1224061387E-01      0.8486311052E-01
          0                 3           1            42   32     2       0.2385071574E-04      43   33    2         0.1399318948E-02      0.1985898019E-01
          0                 4           1            39   35     2       0.1180587635E-04      16   33    1         0.9189233036E-03      0.1217213532E-01
          0                 5           1            41   31     2       0.1331850430E-04      42   34    2         0.5963517606E-03      0.1012032141E-01
          0                 6           1            38   32     2       0.8835535264E-05      44   29    1         0.5421079898E-03      0.9023415154E-02

    ------------------------------------------------
       NWT REQUIRED            6 OUTER ITERATIONS 
       AND A TOTAL OF          6 INNER ITERATIONS.
    ------------------------------------------------

 OUTPUT CONTROL FOR STRESS PERIOD    1   TIME STEP  719
    SAVE HEAD FOR ALL LAYERS
 SOLVING FOR ZETA FOR LAYER     1 ZONE     2

     600 UPPER PART EQS.       598 LOWER PART EQS.    BAND WIDTH + 1 =   25
 STRESS PERIOD=  1 TIMESTEP=719 LAYER=  1 ZONE=  2 ACTIVE CELLS= 1198 NUMBER OF EQUATIONS=    1198
 SOLVING FOR ZETA FOR LAYER     2 ZONE     2

     613 UPPER PART EQS.       612 LOWER PART EQS.    BAND WIDTH + 1 =   34
 STRESS PERIOD=  1 TIMESTEP=719 LAYER=  2 ZONE=  2 ACTIVE CELLS= 1225 NUMBER OF EQUATIONS=    1225
 UBUDSV SAVING "      ZETASRF  1" ON UNIT 55 AT TIME STEP719, STRESS PERIOD    1

 HEAD WILL BE SAVED ON UNIT   51 AT END OF TIME STEP  719, STRESS PERIOD    1
 
 SOLVING FOR HEAD 
                                                   Max.-Head-Change                         Max.-Flux-Residual
  Residual-Control   Outer-Iter.   Inner-Iter.     Column Row Layer    Maximum-Head-Change  Column Row Layer    Maximum-Flux-Residual          L2-NORM 
          0                 1           1            29   48     1       0.7794387124E-03      14   35    1        -0.5218812902E+00      0.2994265586E+01
          0                 2           1            31   14     1       0.4553697543E-04      31   14    1         0.1500852733E-01      0.8032545462E-01
          0                 3           1            28   45     1       0.2438531660E-04      29   16    1         0.2121347716E-02      0.1973764951E-01
          0                 4           1            28   42     2       0.1142406101E-04      31   14    1         0.1084167309E-02      0.1041046968E-01
          0                 5           1            29   16     1       0.8557009596E-05      30   47    1         0.7000968927E-03      0.7245833023E-02

    ------------------------------------------------
       NWT REQUIRED            5 OUTER ITERATIONS 
       AND A TOTAL OF          5 INNER ITERATIONS.
    ------------------------------------------------

 OUTPUT CONTROL FOR STRESS PERIOD    1   TIME STEP  720
    SAVE HEAD FOR ALL LAYERS
 SOLVING FOR ZETA FOR LAYER     1 ZONE     2

     607 UPPER PART EQS.       598 LOWER PART EQS.    BAND WIDTH + 1 =   32
 STRESS PERIOD=  1 TIMESTEP=720 LAYER=  1 ZONE=  2 ACTIVE CELLS= 1205 NUMBER OF EQUATIONS=    1205
 SOLVING FOR ZETA FOR LAYER     2 ZONE     2

     613 UPPER PART EQS.       612 LOWER PART EQS.    BAND WIDTH + 1 =   34
 STRESS PERIOD=  1 TIMESTEP=720 LAYER=  2 ZONE=  2 ACTIVE CELLS= 1225 NUMBER OF EQUATIONS=    1225
 UBUDSV SAVING "      ZETASRF  1" ON UNIT 55 AT TIME STEP720, STRESS PERIOD    1

 HEAD WILL BE SAVED ON UNIT   51 AT END OF TIME STEP  720, STRESS PERIOD    1
 
 SOLVING FOR HEAD 
                                                   Max.-Head-Change                         Max.-Flux-Residual
  Residual-Control   Outer-Iter.   Inner-Iter.     Column Row Layer    Maximum-Head-Change  Column Row Layer    Maximum-Flux-Residual          L2-NORM 
          0                 1           1            32   49     1       0.7477495687E-03      35   14    1        -0.5231055695E+00      0.3607129545E+01
          0                 2           1            35   46     1      -0.3593979971E-04      29   14    1         0.1285717385E-01      0.7336502528E-01
          0                 3           1            32   45     1      -0.1766817792E-04      31   46    1        -0.1554744757E-02      0.1458195985E-01
          0                 4           1            30   19     1      -0.7605506051E-05      34   46    2        -0.6527676592E-03      0.7326351140E-02

    ------------------------------------------------
       NWT REQUIRED            4 OUTER ITERATIONS 
       AND A TOTAL OF          4 INNER ITERATIONS.
    ------------------------------------------------

 OUTPUT CONTROL FOR STRESS PERIOD    1   TIME STEP  721
    SAVE HEAD FOR ALL LAYERS
 SOLVING FOR ZETA FOR LAYER     1 ZONE     2

     592 UPPER PART EQS.       582 LOWER PART EQS.    BAND WIDTH + 1 =   30
 STRESS PERIOD=  1 TIMESTEP=721 LAYER=  1 ZONE=  2 ACTIVE CELLS= 1174 NUMBER OF EQUATIONS=    1174
 SOLVING FOR ZETA FOR LAYER     2 ZONE     2

     613 UPPER PART EQS.       612 LOWER PART EQS.    BAND WIDTH + 1 =   34
 STRESS PERIOD=  1 TIMESTEP=721 LAYER=  2 ZONE=  2 ACTIVE CELLS= 1225 NUMBER OF EQUATIONS=    1225
 UBUDSV SAVING "      ZETASRF  1" ON UNIT 55 AT TIME STEP721, STRESS PERIOD    1

 HEAD WILL BE SAVED ON UNIT   51 AT END OF TIME STEP  721, STRESS PERIOD    1
 
 SOLVING FOR HEAD 
                                                   Max.-Head-Change                         Max.-Flux-Residual
  Residual-Control   Outer-Iter.   Inner-Iter.     Column Row Layer    Maximum-Head-Change  Column Row Layer    Maximum-Flux-Residual          L2-NORM 
          0                 1           1            28   48     1      -0.8738066634E-03      27   48    1        -0.5218733141E+00      0.3650707715E+01
          0                 2           1            32   49     1       0.4918031153E-04      32   49    1         0.1875916946E-01      0.1037091046E+00
          0                 3           1            42   32     2       0.2146787869E-04      34   47    1         0.1825408185E-02      0.2142660353E-01
          0                 4           1            43   30     1       0.1185345480E-04      43   30    1         0.8236728041E-03      0.1134621224E-01
          0                 5           1            41   31     2       0.1073385368E-04      42   34    2         0.5522424968E-03      0.8601187416E-02
          0                 6           1            38   32     2       0.8067935048E-05      44   29    1         0.4550358438E-03      0.7332495561E-02

    ------------------------------------------------
       NWT REQUIRED            6 OUTER ITERATIONS 
       AND A TOTAL OF          6 INNER ITERATIONS.
    ------------------------------------------------

 OUTPUT CONTROL FOR STRESS PERIOD    1   TIME STEP  722
    SAVE HEAD FOR ALL LAYERS
 SOLVING FOR ZETA FOR LAYER     1 ZONE     2

     608 UPPER PART EQS.       586 LOWER PART EQS.    BAND WIDTH + 1 =   38
 STRESS PERIOD=  1 TIMESTEP=722 LAYER=  1 ZONE=  2 ACTIVE CELLS= 1194 NUMBER OF EQUATIONS=    1194
 SOLVING FOR ZETA FOR LAYER     2 ZONE     2

     613 UPPER PART EQS.       612 LOWER PART EQS.    BAND WIDTH + 1 =   34
 STRESS PERIOD=  1 TIMESTEP=722 LAYER=  2 ZONE=  2 ACTIVE CELLS= 1225 NUMBER OF EQUATIONS=    1225
 UBUDSV SAVING "      ZETASRF  1" ON UNIT 55 AT TIME STEP722, STRESS PERIOD    1

 HEAD WILL BE SAVED ON UNIT   51 AT END OF TIME STEP  722, STRESS PERIOD    1
 
 SOLVING FOR HEAD 
                                                   Max.-Head-Change                         Max.-Flux-Residual
  Residual-Control   Outer-Iter.   Inner-Iter.     Column Row Layer    Maximum-Head-Change  Column Row Layer    Maximum-Flux-Residual          L2-NORM 
          0                 1           1            28   14     1       0.8843533173E-03      27   48    1         0.5102704836E+00      0.2993267880E+01
          0                 2           1            31   14     1       0.5696428476E-04      31   14    1         0.1862151856E-01      0.8235763840E-01
          0                 3           1            28   45     1       0.2806627599E-04      29   16    1         0.2560395108E-02      0.2042487244E-01
          0                 4           1            28   42     2       0.1463435334E-04      31   14    1         0.1319085039E-02      0.1247374513E-01
          0                 5           1            29   16     1       0.1110932691E-04      29   16    1         0.8051830595E-03      0.1019293576E-01
          0                 6           1            29   24     1       0.9245547686E-05      31   14    1         0.7186412611E-03      0.8942776696E-02

    ------------------------------------------------
       NWT REQUIRED            6 OUTER ITERATIONS 
       AND A TOTAL OF          6 INNER ITERATIONS.
    ------------------------------------------------

 OUTPUT CONTROL FOR STRESS PERIOD    1   TIME STEP  723
    SAVE HEAD FOR ALL LAYERS
 SOLVING FOR ZETA FOR LAYER     1 ZONE     2

     599 UPPER PART EQS.       602 LOWER PART EQS.    BAND WIDTH + 1 =   30
 STRESS PERIOD=  1 TIMESTEP=723 LAYER=  1 ZONE=  2 ACTIVE CELLS= 1201 NUMBER OF EQUATIONS=    1201
 SOLVING FOR ZETA FOR LAYER     2 ZONE     2

     613 UPPER PART EQS.       612 LOWER PART EQS.    BAND WIDTH + 1 =   34
 STRESS PERIOD=  1 TIMESTEP=723 LAYER=  2 ZONE=  2 ACTIVE CELLS= 1225 NUMBER OF EQUATIONS=    1225
 UBUDSV SAVING "      ZETASRF  1" ON UNIT 55 AT TIME STEP723, STRESS PERIOD    1

 HEAD WILL BE SAVED ON UNIT   51 AT END OF TIME STEP  723, STRESS PERIOD    1
 
 SOLVING FOR HEAD 
                                                   Max.-Head-Change                         Max.-Flux-Residual
  Residual-Control   Outer-Iter.   Inner-Iter.     Column Row Layer    Maximum-Head-Change  Column Row Layer    Maximum-Flux-Residual          L2-NORM 
          0                 1           1            13   28     1       0.8197668226E-03      48   35    1        -0.5195651322E+00      0.3480503956E+01
          0                 2           1            45   30     1      -0.5557432340E-04      45   36    1        -0.1503584104E-01      0.9034311873E-01
          0                 3           1            43   31     2      -0.3193766146E-04      47   34    1        -0.2199231980E-02      0.2213055223E-01
          0                 4           1            44   29     1      -0.1449094725E-04      47   30    1        -0.1232710836E-02      0.1373755782E-01
          0                 5           1            42   32     2      -0.1309704898E-04      48   29    1        -0.8861324739E-03      0.1078880928E-01
          0                 6           1            44   29     1      -0.8509360159E-05      44   29    1        -0.6649023149E-03      0.9335438508E-02

    ------------------------------------------------
       NWT REQUIRED            6 OUTER ITERATIONS 
       AND A TOTAL OF          6 INNER ITERATIONS.
    ------------------------------------------------

 OUTPUT CONTROL FOR STRESS PERIOD    1   TIME STEP  724
    SAVE HEAD FOR ALL LAYERS
 SOLVING FOR ZETA FOR LAYER     1 ZONE     2

     604 UPPER PART EQS.       572 LOWER PART EQS.    BAND WIDTH + 1 =   51
 STRESS PERIOD=  1 TIMESTEP=724 LAYER=  1 ZONE=  2 ACTIVE CELLS= 1176 NUMBER OF EQUATIONS=    1176
 SOLVING FOR ZETA FOR LAYER     2 ZONE     2

     613 UPPER PART EQS.       612 LOWER PART EQS.    BAND WIDTH + 1 =   34
 STRESS PERIOD=  1 TIMESTEP=724 LAYER=  2 ZONE=  2 ACTIVE CELLS= 1225 NUMBER OF EQUATIONS=    1225
 UBUDSV SAVING "      ZETASRF  1" ON UNIT 55 AT TIME STEP724, STRESS PERIOD    1

 HEAD WILL BE SAVED ON UNIT   51 AT END OF TIME STEP  724, STRESS PERIOD    1
 
 SOLVING FOR HEAD 
                                                   Max.-Head-Change                         Max.-Flux-Residual
  Residual-Control   Outer-Iter.   Inner-Iter.     Column Row Layer    Maximum-Head-Change  Column Row Layer    Maximum-Flux-Residual          L2-NORM 
          0                 1           1            48   34     1       0.8644654060E-03      35   48    1        -0.5208581240E+00      0.3482877009E+01
          0                 2           1            45   30     1       0.7430952195E-04      45   36    1         0.1625547310E-01      0.1138124373E+00
          0                 3           1            43   31     2       0.4799818515E-04      47   30    1         0.3289434424E-02      0.3097807735E-01
          0                 4           1            44   31     1       0.1776455679E-04      44   29    1         0.1541308161E-02      0.1711499203E-01
          0                 5           1            42   32     2       0.1948229031E-04      47   30    1         0.1117288997E-02      0.1253505409E-01
          0                 6           1            44   31     1       0.9673222389E-05      44   29    1         0.8288339486E-03      0.1019754869E-01

    ------------------------------------------------
       NWT REQUIRED            6 OUTER ITERATIONS 
       AND A TOTAL OF          6 INNER ITERATIONS.
    ------------------------------------------------

 OUTPUT CONTROL FOR STRESS PERIOD    1   TIME STEP  725
    SAVE HEAD FOR ALL LAYERS
 SOLVING FOR ZETA FOR LAYER     1 ZONE     2

     594 UPPER PART EQS.       590 LOWER PART EQS.    BAND WIDTH + 1 =   27
 STRESS PERIOD=  1 TIMESTEP=725 LAYER=  1 ZONE=  2 ACTIVE CELLS= 1184 NUMBER OF EQUATIONS=    1184
 SOLVING FOR ZETA FOR LAYER     2 ZONE     2

     613 UPPER PART EQS.       612 LOWER PART EQS.    BAND WIDTH + 1 =   34
 STRESS PERIOD=  1 TIMESTEP=725 LAYER=  2 ZONE=  2 ACTIVE CELLS= 1225 NUMBER OF EQUATIONS=    1225
 UBUDSV SAVING "      ZETASRF  1" ON UNIT 55 AT TIME STEP725, STRESS PERIOD    1

 HEAD WILL BE SAVED ON UNIT   51 AT END OF TIME STEP  725, STRESS PERIOD    1
 
 SOLVING FOR HEAD 
                                                   Max.-Head-Change                         Max.-Flux-Residual
  Residual-Control   Outer-Iter.   Inner-Iter.     Column Row Layer    Maximum-Head-Change  Column Row Layer    Maximum-Flux-Residual          L2-NORM 
          0                 1           1            48   31     1      -0.7244807907E-03      27   14    1        -0.5200887407E+00      0.3234930589E+01
          0                 2           1            45   32     1      -0.3414723241E-04      45   32    1        -0.1323205377E-01      0.7014766372E-01
          0                 3           1            29   18     1       0.1349026966E-04      47   30    1        -0.1346473323E-02      0.1362297424E-01
          0                 4           1            29   39     2       0.7265404476E-05      44   33    1        -0.5632343245E-03      0.6829653983E-02

    ------------------------------------------------
       NWT REQUIRED            4 OUTER ITERATIONS 
       AND A TOTAL OF          4 INNER ITERATIONS.
    ------------------------------------------------

 OUTPUT CONTROL FOR STRESS PERIOD    1   TIME STEP  726
    SAVE HEAD FOR ALL LAYERS
 SOLVING FOR ZETA FOR LAYER     1 ZONE     2

     605 UPPER PART EQS.       588 LOWER PART EQS.    BAND WIDTH + 1 =   39
 STRESS PERIOD=  1 TIMESTEP=726 LAYER=  1 ZONE=  2 ACTIVE CELLS= 1193 NUMBER OF EQUATIONS=    1193
 SOLVING FOR ZETA FOR LAYER     2 ZONE     2

     613 UPPER PART EQS.       612 LOWER PART EQS.    BAND WIDTH + 1 =   34
 STRESS PERIOD=  1 TIMESTEP=726 LAYER=  2 ZONE=  2 ACTIVE CELLS= 1225 NUMBER OF EQUATIONS=    1225
 UBUDSV SAVING "      ZETASRF  1" ON UNIT 55 AT TIME STEP726, STRESS PERIOD    1

 HEAD WILL BE SAVED ON UNIT   51 AT END OF TIME STEP  726, STRESS PERIOD    1
 
 SOLVING FOR HEAD 
                                                   Max.-Head-Change                         Max.-Flux-Residual
  Residual-Control   Outer-Iter.   Inner-Iter.     Column Row Layer    Maximum-Head-Change  Column Row Layer    Maximum-Flux-Residual          L2-NORM 
          0                 1           1            48   28     1      -0.6344913488E-03      27   14    1         0.5075251856E+00      0.3595873855E+01
          0                 2           1            24   49     1       0.2924602895E-04      24   49    1         0.1191517452E-01      0.6987445963E-01
          0                 3           1            27   46     1       0.1088257081E-04      25   47    2         0.1066042622E-02      0.1167193497E-01
          0                 4           1            31   42     1       0.4599739087E-05      17   40    1        -0.4797137492E-03      0.5366202846E-02

    ------------------------------------------------
       NWT REQUIRED            4 OUTER ITERATIONS 
       AND A TOTAL OF          4 INNER ITERATIONS.
    ------------------------------------------------

 OUTPUT CONTROL FOR STRESS PERIOD    1   TIME STEP  727
    SAVE HEAD FOR ALL LAYERS
 SOLVING FOR ZETA FOR LAYER     1 ZONE     2

     589 UPPER PART EQS.       584 LOWER PART EQS.    BAND WIDTH + 1 =   27
 STRESS PERIOD=  1 TIMESTEP=727 LAYER=  1 ZONE=  2 ACTIVE CELLS= 1173 NUMBER OF EQUATIONS=    1173
 SOLVING FOR ZETA FOR LAYER     2 ZONE     2

     613 UPPER PART EQS.       612 LOWER PART EQS.    BAND WIDTH + 1 =   34
 STRESS PERIOD=  1 TIMESTEP=727 LAYER=  2 ZONE=  2 ACTIVE CELLS= 1225 NUMBER OF EQUATIONS=    1225
 UBUDSV SAVING "      ZETASRF  1" ON UNIT 55 AT TIME STEP727, STRESS PERIOD    1

 HEAD WILL BE SAVED ON UNIT   51 AT END OF TIME STEP  727, STRESS PERIOD    1
 
 SOLVING FOR HEAD 
                                                   Max.-Head-Change                         Max.-Flux-Residual
  Residual-Control   Outer-Iter.   Inner-Iter.     Column Row Layer    Maximum-Head-Change  Column Row Layer    Maximum-Flux-Residual          L2-NORM 
          0                 1           1            28   49     1       0.6896081836E-03      14   27    1        -0.5181128410E+00      0.3419673068E+01
          0                 2           1            26   49     1      -0.2757372116E-04      26   49    1        -0.1210359240E-01      0.7367955285E-01
          0                 3           1            42   32     2       0.9845305122E-05      30   15    1        -0.1045143636E-02      0.1219377581E-01

    ------------------------------------------------
       NWT REQUIRED            3 OUTER ITERATIONS 
       AND A TOTAL OF          3 INNER ITERATIONS.
    ------------------------------------------------

 OUTPUT CONTROL FOR STRESS PERIOD    1   TIME STEP  728
    SAVE HEAD FOR ALL LAYERS
 SOLVING FOR ZETA FOR LAYER     1 ZONE     2

     611 UPPER PART EQS.       585 LOWER PART EQS.    BAND WIDTH + 1 =   48
 STRESS PERIOD=  1 TIMESTEP=728 LAYER=  1 ZONE=  2 ACTIVE CELLS= 1196 NUMBER OF EQUATIONS=    1196
 SOLVING FOR ZETA FOR LAYER     2 ZONE     2

     613 UPPER PART EQS.       612 LOWER PART EQS.    BAND WIDTH + 1 =   34
 STRESS PERIOD=  1 TIMESTEP=728 LAYER=  2 ZONE=  2 ACTIVE CELLS= 1225 NUMBER OF EQUATIONS=    1225
 UBUDSV SAVING "      ZETASRF  1" ON UNIT 55 AT TIME STEP728, STRESS PERIOD    1

 HEAD WILL BE SAVED ON UNIT   51 AT END OF TIME STEP  728, STRESS PERIOD    1
 
 SOLVING FOR HEAD 
                                                   Max.-Head-Change                         Max.-Flux-Residual
  Residual-Control   Outer-Iter.   Inner-Iter.     Column Row Layer    Maximum-Head-Change  Column Row Layer    Maximum-Flux-Residual          L2-NORM 
          0                 1           1            35   14     1      -0.7553695334E-03      35   48    1        -0.5186060706E+00      0.3226610945E+01
          0                 2           1            32   49     1      -0.3542758561E-04      32   49    1        -0.1903567250E-01      0.7185358202E-01
          0                 3           1            17   28     1       0.1252318915E-04      30   15    1         0.1173697849E-02      0.1424317892E-01
          0                 4           1            20   31     1       0.9743738409E-05      18   31    1         0.6316537968E-03      0.8978261573E-02

    ------------------------------------------------
       NWT REQUIRED            4 OUTER ITERATIONS 
       AND A TOTAL OF          4 INNER ITERATIONS.
    ------------------------------------------------

 OUTPUT CONTROL FOR STRESS PERIOD    1   TIME STEP  729
    SAVE HEAD FOR ALL LAYERS
 SOLVING FOR ZETA FOR LAYER     1 ZONE     2

     596 UPPER PART EQS.       604 LOWER PART EQS.    BAND WIDTH + 1 =   30
 STRESS PERIOD=  1 TIMESTEP=729 LAYER=  1 ZONE=  2 ACTIVE CELLS= 1200 NUMBER OF EQUATIONS=    1200
 SOLVING FOR ZETA FOR LAYER     2 ZONE     2

     613 UPPER PART EQS.       612 LOWER PART EQS.    BAND WIDTH + 1 =   34
 STRESS PERIOD=  1 TIMESTEP=729 LAYER=  2 ZONE=  2 ACTIVE CELLS= 1225 NUMBER OF EQUATIONS=    1225
 UBUDSV SAVING "      ZETASRF  1" ON UNIT 55 AT TIME STEP729, STRESS PERIOD    1

 HEAD WILL BE SAVED ON UNIT   51 AT END OF TIME STEP  729, STRESS PERIOD    1
 
 SOLVING FOR HEAD 
                                                   Max.-Head-Change                         Max.-Flux-Residual
  Residual-Control   Outer-Iter.   Inner-Iter.     Column Row Layer    Maximum-Head-Change  Column Row Layer    Maximum-Flux-Residual          L2-NORM 
          0                 1           1            35   14     1       0.7204308974E-03      27   48    1        -0.5178706513E+00      0.3706393751E+01
          0                 2           1            45   30     1      -0.3570490185E-04      32   49    1         0.1380209579E-01      0.7773268599E-01
          0                 3           1            43   31     2      -0.1667643189E-04      43   31    2        -0.1326224777E-02      0.1430041932E-01
          0                 4           1            18   31     1      -0.7491090331E-05      18   31    1        -0.6150356529E-03      0.7415413384E-02

    ------------------------------------------------
       NWT REQUIRED            4 OUTER ITERATIONS 
       AND A TOTAL OF          4 INNER ITERATIONS.
    ------------------------------------------------

 OUTPUT CONTROL FOR STRESS PERIOD    1   TIME STEP  730
    SAVE HEAD FOR ALL LAYERS
 SOLVING FOR ZETA FOR LAYER     1 ZONE     2

     594 UPPER PART EQS.       582 LOWER PART EQS.    BAND WIDTH + 1 =   35
 STRESS PERIOD=  1 TIMESTEP=730 LAYER=  1 ZONE=  2 ACTIVE CELLS= 1176 NUMBER OF EQUATIONS=    1176
 SOLVING FOR ZETA FOR LAYER     2 ZONE     2

     613 UPPER PART EQS.       612 LOWER PART EQS.    BAND WIDTH + 1 =   34
 STRESS PERIOD=  1 TIMESTEP=730 LAYER=  2 ZONE=  2 ACTIVE CELLS= 1225 NUMBER OF EQUATIONS=    1225
 UBUDSV SAVING "      ZETASRF  1" ON UNIT 55 AT TIME STEP730, STRESS PERIOD    1

 HEAD WILL BE SAVED ON UNIT   51 AT END OF TIME STEP  730, STRESS PERIOD    1
 
 SOLVING FOR HEAD 
                                                   Max.-Head-Change                         Max.-Flux-Residual
  Residual-Control   Outer-Iter.   Inner-Iter.     Column Row Layer    Maximum-Head-Change  Column Row Layer    Maximum-Flux-Residual          L2-NORM 
          0                 1           1            32   14     1       0.7341080190E-03      27   48    1         0.5050135204E+00      0.3107698562E+01
          0                 2           1            44   31     1       0.6004307998E-04      29   14    1        -0.1334155593E-01      0.9497038165E-01
          0                 3           1            42   32     2       0.3576655961E-04      47   30    1         0.2775829564E-02      0.2710860466E-01
          0                 4           1            43   30     1       0.1696003552E-04      44   33    1         0.1256206166E-02      0.1759110224E-01
          0                 5           1            41   31     2       0.1913392007E-04      47   30    1         0.1027859620E-02      0.1487738168E-01
          0                 6           1            38   32     2       0.1240494883E-04      44   33    1         0.8452747508E-03      0.1335671788E-01
          0                 7           1            34   32     2       0.1500756738E-04      47   30    1         0.6826839370E-03      0.1189482016E-01
          0                 8           1            38   32     2       0.9880127604E-05      44   33    1         0.6817200807E-03      0.1082803306E-01

    ------------------------------------------------
       NWT REQUIRED            8 OUTER ITERATIONS 
       AND A TOTAL OF          8 INNER ITERATIONS.
    ------------------------------------------------

 OUTPUT CONTROL FOR STRESS PERIOD    1   TIME STEP  731
    SAVE HEAD FOR ALL LAYERS
 SOLVING FOR ZETA FOR LAYER     1 ZONE     2

     594 UPPER PART EQS.       600 LOWER PART EQS.    BAND WIDTH + 1 =   29
 STRESS PERIOD=  1 TIMESTEP=731 LAYER=  1 ZONE=  2 ACTIVE CELLS= 1194 NUMBER OF EQUATIONS=    1194
 SOLVING FOR ZETA FOR LAYER     2 ZONE     2

     609 UPPER PART EQS.       612 LOWER PART EQS.    BAND WIDTH + 1 =   34
 STRESS PERIOD=  1 TIMESTEP=731 LAYER=  2 ZONE=  2 ACTIVE CELLS= 1221 NUMBER OF EQUATIONS=    1221
 UBUDSV SAVING "      ZETASRF  1" ON UNIT 55 AT TIME STEP731, STRESS PERIOD    1

 HEAD WILL BE SAVED ON UNIT   51 AT END OF TIME STEP  731, STRESS PERIOD    1
 
 SOLVING FOR HEAD 
                                                   Max.-Head-Change                         Max.-Flux-Residual
  Residual-Control   Outer-Iter.   Inner-Iter.     Column Row Layer    Maximum-Head-Change  Column Row Layer    Maximum-Flux-Residual          L2-NORM 
          0                 1           1            48   31     1      -0.7338216785E-03      49   27    1         0.5158724725E+00      0.3153921563E+01
          0                 2           1            44   33     1      -0.5029561941E-04      45   32    1        -0.1396379885E-01      0.8976318981E-01
          0                 3           1            43   31     2      -0.2497185774E-04      46   31    1        -0.2263855138E-02      0.1989109872E-01
          0                 4           1            44   33     1      -0.1227239117E-04      44   33    1        -0.1095090949E-02      0.1017555391E-01
          0                 5           1            42   30     2      -0.1014189566E-04      46   31    1        -0.7380663094E-03      0.7273963111E-02
          0                 6           1            44   33     1      -0.7282102194E-05      44   33    1        -0.5431765783E-03      0.5910540480E-02

    ------------------------------------------------
       NWT REQUIRED            6 OUTER ITERATIONS 
       AND A TOTAL OF          6 INNER ITERATIONS.
    ------------------------------------------------

 OUTPUT CONTROL FOR STRESS PERIOD    1   TIME STEP  732
    SAVE HEAD FOR ALL LAYERS
 SOLVING FOR ZETA FOR LAYER     1 ZONE     2

     595 UPPER PART EQS.       593 LOWER PART EQS.    BAND WIDTH + 1 =   23
 STRESS PERIOD=  1 TIMESTEP=732 LAYER=  1 ZONE=  2 ACTIVE CELLS= 1188 NUMBER OF EQUATIONS=    1188
 SOLVING FOR ZETA FOR LAYER     2 ZONE     2

     613 UPPER PART EQS.       612 LOWER PART EQS.    BAND WIDTH + 1 =   34
 STRESS PERIOD=  1 TIMESTEP=732 LAYER=  2 ZONE=  2 ACTIVE CELLS= 1225 NUMBER OF EQUATIONS=    1225
 UBUDSV SAVING "      ZETASRF  1" ON UNIT 55 AT TIME STEP732, STRESS PERIOD    1

 HEAD WILL BE SAVED ON UNIT   51 AT END OF TIME STEP  732, STRESS PERIOD    1
 
 SOLVING FOR HEAD 
                                                   Max.-Head-Change                         Max.-Flux-Residual
  Residual-Control   Outer-Iter.   Inner-Iter.     Column Row Layer    Maximum-Head-Change  Column Row Layer    Maximum-Flux-Residual          L2-NORM 
          0                 1           1            31   14     1       0.7067600869E-03      35   48    1        -0.5172212754E+00      0.3707369064E+01
          0                 2           1            28   17     1       0.2832839347E-04      28   49    1         0.1320742918E-01      0.7448952990E-01
          0                 3           1            32   17     1       0.1076111383E-04      30   47    1         0.1386120427E-02      0.1216762110E-01
          0                 4           1            31   20     1       0.2946420976E-05      34   47    1         0.3367773213E-03      0.4086281473E-02

    ------------------------------------------------
       NWT REQUIRED            4 OUTER ITERATIONS 
       AND A TOTAL OF          4 INNER ITERATIONS.
    ------------------------------------------------

 OUTPUT CONTROL FOR STRESS PERIOD    1   TIME STEP  733
    SAVE HEAD FOR ALL LAYERS
 SOLVING FOR ZETA FOR LAYER     1 ZONE     2

     590 UPPER PART EQS.       578 LOWER PART EQS.    BAND WIDTH + 1 =   33
 STRESS PERIOD=  1 TIMESTEP=733 LAYER=  1 ZONE=  2 ACTIVE CELLS= 1168 NUMBER OF EQUATIONS=    1168
 SOLVING FOR ZETA FOR LAYER     2 ZONE     2

     613 UPPER PART EQS.       612 LOWER PART EQS.    BAND WIDTH + 1 =   34
 STRESS PERIOD=  1 TIMESTEP=733 LAYER=  2 ZONE=  2 ACTIVE CELLS= 1225 NUMBER OF EQUATIONS=    1225
 UBUDSV SAVING "      ZETASRF  1" ON UNIT 55 AT TIME STEP733, STRESS PERIOD    1

 HEAD WILL BE SAVED ON UNIT   51 AT END OF TIME STEP  733, STRESS PERIOD    1
 
 SOLVING FOR HEAD 
                                                   Max.-Head-Change                         Max.-Flux-Residual
  Residual-Control   Outer-Iter.   Inner-Iter.     Column Row Layer    Maximum-Head-Change  Column Row Layer    Maximum-Flux-Residual          L2-NORM 
          0                 1           1            28   14     1      -0.8833017166E-03      27   48    1        -0.5157718159E+00      0.3555121367E+01
          0                 2           1            32   49     1       0.5258971522E-04      32   49    1         0.2110131443E-01      0.1013030707E+00
          0                 3           1            28   45     1      -0.2190388665E-04      30   15    1        -0.2417023212E-02      0.1881956907E-01
          0                 4           1            28   44     2      -0.7239010734E-05      28   49    1        -0.7340438670E-03      0.8272741484E-02

    ------------------------------------------------
       NWT REQUIRED            4 OUTER ITERATIONS 
       AND A TOTAL OF          4 INNER ITERATIONS.
    ------------------------------------------------

 OUTPUT CONTROL FOR STRESS PERIOD    1   TIME STEP  734
    SAVE HEAD FOR ALL LAYERS
 SOLVING FOR ZETA FOR LAYER     1 ZONE     2

     595 UPPER PART EQS.       586 LOWER PART EQS.    BAND WIDTH + 1 =   30
 STRESS PERIOD=  1 TIMESTEP=734 LAYER=  1 ZONE=  2 ACTIVE CELLS= 1181 NUMBER OF EQUATIONS=    1181
 SOLVING FOR ZETA FOR LAYER     2 ZONE     2

     613 UPPER PART EQS.       612 LOWER PART EQS.    BAND WIDTH + 1 =   34
 STRESS PERIOD=  1 TIMESTEP=734 LAYER=  2 ZONE=  2 ACTIVE CELLS= 1225 NUMBER OF EQUATIONS=    1225
 UBUDSV SAVING "      ZETASRF  1" ON UNIT 55 AT TIME STEP734, STRESS PERIOD    1

 HEAD WILL BE SAVED ON UNIT   51 AT END OF TIME STEP  734, STRESS PERIOD    1
 
 SOLVING FOR HEAD 
                                                   Max.-Head-Change                         Max.-Flux-Residual
  Residual-Control   Outer-Iter.   Inner-Iter.     Column Row Layer    Maximum-Head-Change  Column Row Layer    Maximum-Flux-Residual          L2-NORM 
          0                 1           1            28   14     1       0.8639313583E-03      27   48    1         0.5034007338E+00      0.3193445509E+01
          0                 2           1            31   14     1       0.5887149755E-04      31   14    1         0.2264183521E-01      0.1003702967E+00
          0                 3           1            43   31     2       0.2318726355E-04      29   16    1         0.2323836029E-02      0.2223648180E-01
          0                 4           1            21   32     1       0.1317838771E-04      44   33    1         0.1018874795E-02      0.1329503717E-01
          0                 5           1            22   30     2       0.1267205016E-04      46   31    1         0.7443973562E-03      0.1110193256E-01
          0                 6           1            26   30     2       0.1011543222E-04      33   39    2         0.5732885829E-03      0.9895974404E-02
          0                 7           1            26   31     1       0.1013887521E-04      33   39    2         0.5026808273E-03      0.8867823422E-02
          0                 8           1            29   31     2       0.8296525614E-05      33   39    2         0.4946083249E-03      0.8027630996E-02

    ------------------------------------------------
       NWT REQUIRED            8 OUTER ITERATIONS 
       AND A TOTAL OF          8 INNER ITERATIONS.
    ------------------------------------------------

 OUTPUT CONTROL FOR STRESS PERIOD    1   TIME STEP  735
    SAVE HEAD FOR ALL LAYERS
 SOLVING FOR ZETA FOR LAYER     1 ZONE     2

     603 UPPER PART EQS.       600 LOWER PART EQS.    BAND WIDTH + 1 =   24
 STRESS PERIOD=  1 TIMESTEP=735 LAYER=  1 ZONE=  2 ACTIVE CELLS= 1203 NUMBER OF EQUATIONS=    1203
 SOLVING FOR ZETA FOR LAYER     2 ZONE     2

     613 UPPER PART EQS.       612 LOWER PART EQS.    BAND WIDTH + 1 =   34
 STRESS PERIOD=  1 TIMESTEP=735 LAYER=  2 ZONE=  2 ACTIVE CELLS= 1225 NUMBER OF EQUATIONS=    1225
 UBUDSV SAVING "      ZETASRF  1" ON UNIT 55 AT TIME STEP735, STRESS PERIOD    1

 HEAD WILL BE SAVED ON UNIT   51 AT END OF TIME STEP  735, STRESS PERIOD    1
 
 SOLVING FOR HEAD 
                                                   Max.-Head-Change                         Max.-Flux-Residual
  Residual-Control   Outer-Iter.   Inner-Iter.     Column Row Layer    Maximum-Head-Change  Column Row Layer    Maximum-Flux-Residual          L2-NORM 
          0                 1           1            48   34     1      -0.9098324621E-03      48   27    1        -0.5134366889E+00      0.3610387440E+01
          0                 2           1            44   31     1      -0.9646074409E-04      45   34    1        -0.1798471185E-01      0.1262449043E+00
          0                 3           1            43   31     2      -0.5633283087E-04      47   30    1        -0.4294561889E-02      0.3671235059E-01
          0                 4           1            44   31     1      -0.2085743969E-04      44   33    1        -0.2000045303E-02      0.2020014614E-01
          0                 5           1            16   33     1      -0.2069903164E-04      47   30    1        -0.1469704104E-02      0.1407066936E-01
          0                 6           1            19   30     1      -0.1048325356E-04      44   33    1        -0.9571294889E-03      0.1086446256E-01
          0                 7           1            21   31     2      -0.1212318782E-04      47   30    1        -0.7068805958E-03      0.8808185982E-02
          0                 8           1            20   33     1      -0.6475775990E-05      44   33    1        -0.5693683633E-03      0.7602495035E-02

    ------------------------------------------------
       NWT REQUIRED            8 OUTER ITERATIONS 
       AND A TOTAL OF          8 INNER ITERATIONS.
    ------------------------------------------------

 OUTPUT CONTROL FOR STRESS PERIOD    1   TIME STEP  736
    SAVE HEAD FOR ALL LAYERS
 SOLVING FOR ZETA FOR LAYER     1 ZONE     2

     597 UPPER PART EQS.       577 LOWER PART EQS.    BAND WIDTH + 1 =   41
 STRESS PERIOD=  1 TIMESTEP=736 LAYER=  1 ZONE=  2 ACTIVE CELLS= 1174 NUMBER OF EQUATIONS=    1174
 SOLVING FOR ZETA FOR LAYER     2 ZONE     2

     613 UPPER PART EQS.       612 LOWER PART EQS.    BAND WIDTH + 1 =   34
 STRESS PERIOD=  1 TIMESTEP=736 LAYER=  2 ZONE=  2 ACTIVE CELLS= 1225 NUMBER OF EQUATIONS=    1225
 UBUDSV SAVING "      ZETASRF  1" ON UNIT 55 AT TIME STEP736, STRESS PERIOD    1

 HEAD WILL BE SAVED ON UNIT   51 AT END OF TIME STEP  736, STRESS PERIOD    1
 
 SOLVING FOR HEAD 
                                                   Max.-Head-Change                         Max.-Flux-Residual
  Residual-Control   Outer-Iter.   Inner-Iter.     Column Row Layer    Maximum-Head-Change  Column Row Layer    Maximum-Flux-Residual          L2-NORM 
          0                 1           1            48   34     1       0.9050382918E-03      35   49    1         0.5153589931E+00      0.3885374725E+01
          0                 2           1            44   31     1       0.1016676910E-03      45   34    1         0.1807241786E-01      0.1332268359E+00
          0                 3           1            42   32     2       0.5875155935E-04      47   30    1         0.4649281070E-02      0.4056811931E-01
          0                 4           1            44   31     1       0.2360615912E-04      44   33    1         0.2227129145E-02      0.2184214097E-01
          0                 5           1            42   32     2       0.2206511651E-04      47   30    1         0.1582531737E-02      0.1482687268E-01
          0                 6           1            44   33     1       0.1151070395E-04      44   33    1         0.1106497374E-02      0.1106209422E-01
          0                 7           1            42   32     2       0.1320449529E-04      47   30    1         0.7427152933E-03      0.8709435806E-02
          0                 8           1            44   33     1       0.6762748546E-05      44   33    1         0.6531451221E-03      0.7368855990E-02

    ------------------------------------------------
       NWT REQUIRED            8 OUTER ITERATIONS 
       AND A TOTAL OF          8 INNER ITERATIONS.
    ------------------------------------------------

 OUTPUT CONTROL FOR STRESS PERIOD    1   TIME STEP  737
    SAVE HEAD FOR ALL LAYERS
 SOLVING FOR ZETA FOR LAYER     1 ZONE     2

     596 UPPER PART EQS.       594 LOWER PART EQS.    BAND WIDTH + 1 =   25
 STRESS PERIOD=  1 TIMESTEP=737 LAYER=  1 ZONE=  2 ACTIVE CELLS= 1190 NUMBER OF EQUATIONS=    1190
 SOLVING FOR ZETA FOR LAYER     2 ZONE     2

     613 UPPER PART EQS.       612 LOWER PART EQS.    BAND WIDTH + 1 =   34
 STRESS PERIOD=  1 TIMESTEP=737 LAYER=  2 ZONE=  2 ACTIVE CELLS= 1225 NUMBER OF EQUATIONS=    1225
 UBUDSV SAVING "      ZETASRF  1" ON UNIT 55 AT TIME STEP737, STRESS PERIOD    1

 HEAD WILL BE SAVED ON UNIT   51 AT END OF TIME STEP  737, STRESS PERIOD    1
 
 SOLVING FOR HEAD 
                                                   Max.-Head-Change                         Max.-Flux-Residual
  Residual-Control   Outer-Iter.   Inner-Iter.     Column Row Layer    Maximum-Head-Change  Column Row Layer    Maximum-Flux-Residual          L2-NORM 
          0                 1           1            48   31     1      -0.7112892810E-03      27   14    1        -0.5142892338E+00      0.3241566381E+01
          0                 2           1            45   32     1      -0.3566608271E-04      45   32    1        -0.1308190695E-01      0.7189542241E-01
          0                 3           1            43   31     2      -0.1493923000E-04      47   30    1        -0.1430077060E-02      0.1381067944E-01
          0                 4           1            28   20     2       0.6246847945E-05      44   33    1        -0.6332191109E-03      0.6535361046E-02

    ------------------------------------------------
       NWT REQUIRED            4 OUTER ITERATIONS 
       AND A TOTAL OF          4 INNER ITERATIONS.
    ------------------------------------------------

 OUTPUT CONTROL FOR STRESS PERIOD    1   TIME STEP  738
    SAVE HEAD FOR ALL LAYERS
 SOLVING FOR ZETA FOR LAYER     1 ZONE     2

     597 UPPER PART EQS.       592 LOWER PART EQS.    BAND WIDTH + 1 =   29
 STRESS PERIOD=  1 TIMESTEP=738 LAYER=  1 ZONE=  2 ACTIVE CELLS= 1189 NUMBER OF EQUATIONS=    1189
 SOLVING FOR ZETA FOR LAYER     2 ZONE     2

     613 UPPER PART EQS.       612 LOWER PART EQS.    BAND WIDTH + 1 =   34
 STRESS PERIOD=  1 TIMESTEP=738 LAYER=  2 ZONE=  2 ACTIVE CELLS= 1225 NUMBER OF EQUATIONS=    1225
 UBUDSV SAVING "      ZETASRF  1" ON UNIT 55 AT TIME STEP738, STRESS PERIOD    1

 HEAD WILL BE SAVED ON UNIT   51 AT END OF TIME STEP  738, STRESS PERIOD    1
 
 SOLVING FOR HEAD 
                                                   Max.-Head-Change                         Max.-Flux-Residual
  Residual-Control   Outer-Iter.   Inner-Iter.     Column Row Layer    Maximum-Head-Change  Column Row Layer    Maximum-Flux-Residual          L2-NORM 
          0                 1           1            34   14     1       0.6792623124E-03      27   14    1         0.5014122053E+00      0.3328582350E+01
          0                 2           1            30   47     1       0.4529631621E-04      24   49    1         0.1149990037E-01      0.8103875164E-01
          0                 3           1            32   45     1       0.2655148066E-04      30   47    1         0.2044852325E-02      0.1892276065E-01
          0                 4           1            32   20     2       0.1015602046E-04      29   16    1         0.8087267801E-03      0.9559443330E-02
          0                 5           1            33   44     1       0.7949199374E-05      31   14    1         0.5822796352E-03      0.6438838430E-02

    ------------------------------------------------
       NWT REQUIRED            5 OUTER ITERATIONS 
       AND A TOTAL OF          5 INNER ITERATIONS.
    ------------------------------------------------

 OUTPUT CONTROL FOR STRESS PERIOD    1   TIME STEP  739
    SAVE HEAD FOR ALL LAYERS
 SOLVING FOR ZETA FOR LAYER     1 ZONE     2

     581 UPPER PART EQS.       593 LOWER PART EQS.    BAND WIDTH + 1 =   33
 STRESS PERIOD=  1 TIMESTEP=739 LAYER=  1 ZONE=  2 ACTIVE CELLS= 1174 NUMBER OF EQUATIONS=    1174
 SOLVING FOR ZETA FOR LAYER     2 ZONE     2

     613 UPPER PART EQS.       612 LOWER PART EQS.    BAND WIDTH + 1 =   34
 STRESS PERIOD=  1 TIMESTEP=739 LAYER=  2 ZONE=  2 ACTIVE CELLS= 1225 NUMBER OF EQUATIONS=    1225
 UBUDSV SAVING "      ZETASRF  1" ON UNIT 55 AT TIME STEP739, STRESS PERIOD    1

 HEAD WILL BE SAVED ON UNIT   51 AT END OF TIME STEP  739, STRESS PERIOD    1
 
 SOLVING FOR HEAD 
                                                   Max.-Head-Change                         Max.-Flux-Residual
  Residual-Control   Outer-Iter.   Inner-Iter.     Column Row Layer    Maximum-Head-Change  Column Row Layer    Maximum-Flux-Residual          L2-NORM 
          0                 1           1            28   49     1       0.6626403625E-03      14   35    1        -0.5121354172E+00      0.3609621541E+01
          0                 2           1            31   46     1      -0.3221111157E-04      25   14    1         0.1029503929E-01      0.7213814741E-01
          0                 3           1            30   45     1      -0.1336507169E-04      30   47    1        -0.1557360611E-02      0.1232703097E-01
          0                 4           1            31   17     2      -0.4174121102E-05      28   49    1        -0.4799003135E-03      0.4371429379E-02

    ------------------------------------------------
       NWT REQUIRED            4 OUTER ITERATIONS 
       AND A TOTAL OF          4 INNER ITERATIONS.
    ------------------------------------------------

 OUTPUT CONTROL FOR STRESS PERIOD    1   TIME STEP  740
    SAVE HEAD FOR ALL LAYERS
 SOLVING FOR ZETA FOR LAYER     1 ZONE     2

     594 UPPER PART EQS.       588 LOWER PART EQS.    BAND WIDTH + 1 =   27
 STRESS PERIOD=  1 TIMESTEP=740 LAYER=  1 ZONE=  2 ACTIVE CELLS= 1182 NUMBER OF EQUATIONS=    1182
 SOLVING FOR ZETA FOR LAYER     2 ZONE     2

     613 UPPER PART EQS.       612 LOWER PART EQS.    BAND WIDTH + 1 =   34
 STRESS PERIOD=  1 TIMESTEP=740 LAYER=  2 ZONE=  2 ACTIVE CELLS= 1225 NUMBER OF EQUATIONS=    1225
 UBUDSV SAVING "      ZETASRF  1" ON UNIT 55 AT TIME STEP740, STRESS PERIOD    1

 HEAD WILL BE SAVED ON UNIT   51 AT END OF TIME STEP  740, STRESS PERIOD    1
 
 SOLVING FOR HEAD 
                                                   Max.-Head-Change                         Max.-Flux-Residual
  Residual-Control   Outer-Iter.   Inner-Iter.     Column Row Layer    Maximum-Head-Change  Column Row Layer    Maximum-Flux-Residual          L2-NORM 
          0                 1           1            34   49     1       0.7955691037E-03      35   14    1        -0.5130804834E+00      0.3106889126E+01
          0                 2           1            45   32     1       0.5587313009E-04      32   49    1        -0.2216956650E-01      0.9971960897E-01
          0                 3           1            43   31     2       0.3197657785E-04      46   31    1         0.2455968425E-02      0.2435372683E-01
          0                 4           1            19   30     1       0.1668829029E-04      15   30    1         0.1233994730E-02      0.1450785353E-01
          0                 5           1            21   31     2       0.1530553119E-04      15   30    1         0.9465731686E-03      0.1154734016E-01
          0                 6           1            21   30     1       0.1065035915E-04      15   30    1         0.6961300488E-03      0.9969321448E-02
          0                 7           1            23   31     2       0.1084860862E-04      15   30    1         0.5790169202E-03      0.8799441174E-02
          0                 8           1            26   30     2       0.8180830224E-05      36   36    2         0.4700695215E-03      0.7928735707E-02

    ------------------------------------------------
       NWT REQUIRED            8 OUTER ITERATIONS 
       AND A TOTAL OF          8 INNER ITERATIONS.
    ------------------------------------------------

 OUTPUT CONTROL FOR STRESS PERIOD    1   TIME STEP  741
    SAVE HEAD FOR ALL LAYERS
 SOLVING FOR ZETA FOR LAYER     1 ZONE     2

     594 UPPER PART EQS.       600 LOWER PART EQS.    BAND WIDTH + 1 =   31
 STRESS PERIOD=  1 TIMESTEP=741 LAYER=  1 ZONE=  2 ACTIVE CELLS= 1194 NUMBER OF EQUATIONS=    1194
 SOLVING FOR ZETA FOR LAYER     2 ZONE     2

     613 UPPER PART EQS.       612 LOWER PART EQS.    BAND WIDTH + 1 =   34
 STRESS PERIOD=  1 TIMESTEP=741 LAYER=  2 ZONE=  2 ACTIVE CELLS= 1225 NUMBER OF EQUATIONS=    1225
 UBUDSV SAVING "      ZETASRF  1" ON UNIT 55 AT TIME STEP741, STRESS PERIOD    1

 HEAD WILL BE SAVED ON UNIT   51 AT END OF TIME STEP  741, STRESS PERIOD    1
 
 SOLVING FOR HEAD 
                                                   Max.-Head-Change                         Max.-Flux-Residual
  Residual-Control   Outer-Iter.   Inner-Iter.     Column Row Layer    Maximum-Head-Change  Column Row Layer    Maximum-Flux-Residual          L2-NORM 
          0                 1           1            48   33     1      -0.8370958154E-03      27   13    1         0.5138560569E+00      0.3639199174E+01
          0                 2           1            44   31     1      -0.7877469220E-04      31   14    1        -0.1831361232E-01      0.1158738744E+00
          0                 3           1            43   31     2      -0.4138816046E-04      47   30    1        -0.3441707285E-02      0.2916819553E-01
          0                 4           1            19   30     1      -0.1707576207E-04      44   33    1        -0.1531695430E-02      0.1577160816E-01
          0                 5           1            16   33     1      -0.1577433919E-04      15   30    1        -0.1113988338E-02      0.1131088086E-01
          0                 6           1            19   30     1      -0.9969442051E-05      15   30    1        -0.7273329323E-03      0.9130588701E-02

    ------------------------------------------------
       NWT REQUIRED            6 OUTER ITERATIONS 
       AND A TOTAL OF          6 INNER ITERATIONS.
    ------------------------------------------------

 OUTPUT CONTROL FOR STRESS PERIOD    1   TIME STEP  742
    SAVE HEAD FOR ALL LAYERS
 SOLVING FOR ZETA FOR LAYER     1 ZONE     2

     592 UPPER PART EQS.       587 LOWER PART EQS.    BAND WIDTH + 1 =   28
 STRESS PERIOD=  1 TIMESTEP=742 LAYER=  1 ZONE=  2 ACTIVE CELLS= 1179 NUMBER OF EQUATIONS=    1179
 SOLVING FOR ZETA FOR LAYER     2 ZONE     2

     613 UPPER PART EQS.       612 LOWER PART EQS.    BAND WIDTH + 1 =   34
 STRESS PERIOD=  1 TIMESTEP=742 LAYER=  2 ZONE=  2 ACTIVE CELLS= 1225 NUMBER OF EQUATIONS=    1225
 UBUDSV SAVING "      ZETASRF  1" ON UNIT 55 AT TIME STEP742, STRESS PERIOD    1

 HEAD WILL BE SAVED ON UNIT   51 AT END OF TIME STEP  742, STRESS PERIOD    1
 
 SOLVING FOR HEAD 
                                                   Max.-Head-Change                         Max.-Flux-Residual
  Residual-Control   Outer-Iter.   Inner-Iter.     Column Row Layer    Maximum-Head-Change  Column Row Layer    Maximum-Flux-Residual          L2-NORM 
          0                 1           1            48   32     1       0.8348122964E-03      27   48    1         0.4989622020E+00      0.3289393233E+01
          0                 2           1            44   31     1       0.8283111934E-04      45   32    1         0.1714624161E-01      0.1030079330E+00
          0                 3           1            42   32     2       0.4684319691E-04      47   30    1         0.3672579021E-02      0.2939588066E-01
          0                 4           1            44   33     1       0.1851215179E-04      44   33    1         0.1752687560E-02      0.1716180378E-01
          0                 5           1            42   32     2       0.2019507166E-04      47   30    1         0.1255734393E-02      0.1330335581E-01
          0                 6           1            44   33     1       0.1083204087E-04      44   33    1         0.9727776012E-03      0.1139781527E-01
          0                 7           1            41   31     2       0.1386455632E-04      47   30    1         0.7279301509E-03      0.9904151109E-02
          0                 8           1            38   32     2       0.7783867405E-05      44   33    1         0.6919793404E-03      0.8979836847E-02

    ------------------------------------------------
       NWT REQUIRED            8 OUTER ITERATIONS 
       AND A TOTAL OF          8 INNER ITERATIONS.
    ------------------------------------------------

 OUTPUT CONTROL FOR STRESS PERIOD    1   TIME STEP  743
    SAVE HEAD FOR ALL LAYERS
 SOLVING FOR ZETA FOR LAYER     1 ZONE     2

     592 UPPER PART EQS.       598 LOWER PART EQS.    BAND WIDTH + 1 =   27
 STRESS PERIOD=  1 TIMESTEP=743 LAYER=  1 ZONE=  2 ACTIVE CELLS= 1190 NUMBER OF EQUATIONS=    1190
 SOLVING FOR ZETA FOR LAYER     2 ZONE     2

     613 UPPER PART EQS.       612 LOWER PART EQS.    BAND WIDTH + 1 =   34
 STRESS PERIOD=  1 TIMESTEP=743 LAYER=  2 ZONE=  2 ACTIVE CELLS= 1225 NUMBER OF EQUATIONS=    1225
 UBUDSV SAVING "      ZETASRF  1" ON UNIT 55 AT TIME STEP743, STRESS PERIOD    1

 HEAD WILL BE SAVED ON UNIT   51 AT END OF TIME STEP  743, STRESS PERIOD    1
 
 SOLVING FOR HEAD 
                                                   Max.-Head-Change                         Max.-Flux-Residual
  Residual-Control   Outer-Iter.   Inner-Iter.     Column Row Layer    Maximum-Head-Change  Column Row Layer    Maximum-Flux-Residual          L2-NORM 
          0                 1           1            33   14     1      -0.7308419336E-03      13   35    1         0.5120176414E+00      0.3260140695E+01
          0                 2           1            44   33     1      -0.4950523761E-04      31   14    1         0.1801940136E-01      0.9254505923E-01
          0                 3           1            43   31     2      -0.2671689734E-04      46   31    1        -0.2161895704E-02      0.2134090065E-01
          0                 4           1            44   33     1      -0.1242634192E-04      44   33    1        -0.1087955094E-02      0.1092556283E-01
          0                 5           1            42   32     2      -0.1016741341E-04      46   31    1        -0.7754704241E-03      0.7237680645E-02
          0                 6           1            44   33     1      -0.6801427732E-05      44   33    1        -0.5472754322E-03      0.5319255279E-02

    ------------------------------------------------
       NWT REQUIRED            6 OUTER ITERATIONS 
       AND A TOTAL OF          6 INNER ITERATIONS.
    ------------------------------------------------

 OUTPUT CONTROL FOR STRESS PERIOD    1   TIME STEP  744
    SAVE HEAD FOR ALL LAYERS
 SOLVING FOR ZETA FOR LAYER     1 ZONE     2

     596 UPPER PART EQS.       597 LOWER PART EQS.    BAND WIDTH + 1 =   25
 STRESS PERIOD=  1 TIMESTEP=744 LAYER=  1 ZONE=  2 ACTIVE CELLS= 1193 NUMBER OF EQUATIONS=    1193
 SOLVING FOR ZETA FOR LAYER     2 ZONE     2

     613 UPPER PART EQS.       612 LOWER PART EQS.    BAND WIDTH + 1 =   34
 STRESS PERIOD=  1 TIMESTEP=744 LAYER=  2 ZONE=  2 ACTIVE CELLS= 1225 NUMBER OF EQUATIONS=    1225
 UBUDSV SAVING "      ZETASRF  1" ON UNIT 55 AT TIME STEP744, STRESS PERIOD    1

 HEAD WILL BE SAVED ON UNIT   51 AT END OF TIME STEP  744, STRESS PERIOD    1
 
 SOLVING FOR HEAD 
                                                   Max.-Head-Change                         Max.-Flux-Residual
  Residual-Control   Outer-Iter.   Inner-Iter.     Column Row Layer    Maximum-Head-Change  Column Row Layer    Maximum-Flux-Residual          L2-NORM 
          0                 1           1            33   48     1       0.6889488004E-03      35   48    1        -0.5112702121E+00      0.3513248409E+01
          0                 2           1            37   12     1      -0.2197995099E-04      30   49    1         0.1202694233E-01      0.6924051831E-01
          0                 3           1            20   43     1      -0.8567740184E-05      33   16    1         0.8454629634E-03      0.1059555868E-01

    ------------------------------------------------
       NWT REQUIRED            3 OUTER ITERATIONS 
       AND A TOTAL OF          3 INNER ITERATIONS.
    ------------------------------------------------

 OUTPUT CONTROL FOR STRESS PERIOD    1   TIME STEP  745
    SAVE HEAD FOR ALL LAYERS
 SOLVING FOR ZETA FOR LAYER     1 ZONE     2

     584 UPPER PART EQS.       588 LOWER PART EQS.    BAND WIDTH + 1 =   26
 STRESS PERIOD=  1 TIMESTEP=745 LAYER=  1 ZONE=  2 ACTIVE CELLS= 1172 NUMBER OF EQUATIONS=    1172
 SOLVING FOR ZETA FOR LAYER     2 ZONE     2

     613 UPPER PART EQS.       612 LOWER PART EQS.    BAND WIDTH + 1 =   34
 STRESS PERIOD=  1 TIMESTEP=745 LAYER=  2 ZONE=  2 ACTIVE CELLS= 1225 NUMBER OF EQUATIONS=    1225
 UBUDSV SAVING "      ZETASRF  1" ON UNIT 55 AT TIME STEP745, STRESS PERIOD    1

 HEAD WILL BE SAVED ON UNIT   51 AT END OF TIME STEP  745, STRESS PERIOD    1
 
 SOLVING FOR HEAD 
                                                   Max.-Head-Change                         Max.-Flux-Residual
  Residual-Control   Outer-Iter.   Inner-Iter.     Column Row Layer    Maximum-Head-Change  Column Row Layer    Maximum-Flux-Residual          L2-NORM 
          0                 1           1            28   14     1      -0.8691862424E-03      27   48    1        -0.5104249573E+00      0.3854775091E+01
          0                 2           1            25   48     1      -0.4524333702E-04      32   49    1         0.1824811284E-01      0.9133135966E-01
          0                 3           1            28   45     1      -0.1978400046E-04      27   46    1        -0.2107701423E-02      0.1758364664E-01
          0                 4           1            44   29     1       0.6701326330E-05      25   16    1        -0.8182253140E-03      0.7737713373E-02

    ------------------------------------------------
       NWT REQUIRED            4 OUTER ITERATIONS 
       AND A TOTAL OF          4 INNER ITERATIONS.
    ------------------------------------------------

 OUTPUT CONTROL FOR STRESS PERIOD    1   TIME STEP  746
    SAVE HEAD FOR ALL LAYERS
 SOLVING FOR ZETA FOR LAYER     1 ZONE     2

     596 UPPER PART EQS.       600 LOWER PART EQS.    BAND WIDTH + 1 =   27
 STRESS PERIOD=  1 TIMESTEP=746 LAYER=  1 ZONE=  2 ACTIVE CELLS= 1196 NUMBER OF EQUATIONS=    1196
 SOLVING FOR ZETA FOR LAYER     2 ZONE     2

     613 UPPER PART EQS.       612 LOWER PART EQS.    BAND WIDTH + 1 =   34
 STRESS PERIOD=  1 TIMESTEP=746 LAYER=  2 ZONE=  2 ACTIVE CELLS= 1225 NUMBER OF EQUATIONS=    1225
 UBUDSV SAVING "      ZETASRF  1" ON UNIT 55 AT TIME STEP746, STRESS PERIOD    1

 HEAD WILL BE SAVED ON UNIT   51 AT END OF TIME STEP  746, STRESS PERIOD    1
 
 SOLVING FOR HEAD 
                                                   Max.-Head-Change                         Max.-Flux-Residual
  Residual-Control   Outer-Iter.   Inner-Iter.     Column Row Layer    Maximum-Head-Change  Column Row Layer    Maximum-Flux-Residual          L2-NORM 
          0                 1           1            28   14     1       0.8561767886E-03      27   48    1         0.4972455104E+00      0.3055941244E+01
          0                 2           1            31   14     1       0.4813754551E-04      31   14    1         0.1995631259E-01      0.9006987335E-01
          0                 3           1            43   31     2       0.2276796038E-04      46   31    1         0.2155567432E-02      0.2097058200E-01
          0                 4           1            20   32     2       0.1291612898E-04      44   33    1         0.1025359625E-02      0.1284720431E-01
          0                 5           1            22   30     2       0.1262858510E-04      46   31    1         0.7584812792E-03      0.1079314781E-01
          0                 6           1            26   30     2       0.9810195522E-05      44   33    1         0.5814912851E-03      0.9618611934E-02

    ------------------------------------------------
       NWT REQUIRED            6 OUTER ITERATIONS 
       AND A TOTAL OF          6 INNER ITERATIONS.
    ------------------------------------------------

 OUTPUT CONTROL FOR STRESS PERIOD    1   TIME STEP  747
    SAVE HEAD FOR ALL LAYERS
 SOLVING FOR ZETA FOR LAYER     1 ZONE     2

     600 UPPER PART EQS.       600 LOWER PART EQS.    BAND WIDTH + 1 =   29
 STRESS PERIOD=  1 TIMESTEP=747 LAYER=  1 ZONE=  2 ACTIVE CELLS= 1200 NUMBER OF EQUATIONS=    1200
 SOLVING FOR ZETA FOR LAYER     2 ZONE     2

     613 UPPER PART EQS.       612 LOWER PART EQS.    BAND WIDTH + 1 =   34
 STRESS PERIOD=  1 TIMESTEP=747 LAYER=  2 ZONE=  2 ACTIVE CELLS= 1225 NUMBER OF EQUATIONS=    1225
 UBUDSV SAVING "      ZETASRF  1" ON UNIT 55 AT TIME STEP747, STRESS PERIOD    1

 HEAD WILL BE SAVED ON UNIT   51 AT END OF TIME STEP  747, STRESS PERIOD    1
 
 SOLVING FOR HEAD 
                                                   Max.-Head-Change                         Max.-Flux-Residual
  Residual-Control   Outer-Iter.   Inner-Iter.     Column Row Layer    Maximum-Head-Change  Column Row Layer    Maximum-Flux-Residual          L2-NORM 
          0                 1           1            48   34     1      -0.8981447119E-03      48   27    1        -0.5078235668E+00      0.3574595098E+01
          0                 2           1            44   31     1      -0.9420455340E-04      45   34    1        -0.1770960110E-01      0.1209454311E+00
          0                 3           1            43   31     2      -0.5448358280E-04      47   30    1        -0.4151538174E-02      0.3484334194E-01
          0                 4           1            44   31     1      -0.1993784526E-04      44   33    1        -0.1910214622E-02      0.1933965092E-01
          0                 5           1            16   33     1      -0.2001231976E-04      47   30    1        -0.1402971939E-02      0.1363112806E-01
          0                 6           1            19   30     1      -0.1024850193E-04      44   33    1        -0.9239980714E-03      0.1070467049E-01
          0                 7           1            21   31     2      -0.1223095943E-04      47   30    1        -0.6832598189E-03      0.8751102411E-02
          0                 8           1            20   33     1      -0.6357968382E-05      44   33    1        -0.5638167337E-03      0.7643418381E-02

    ------------------------------------------------
       NWT REQUIRED            8 OUTER ITERATIONS 
       AND A TOTAL OF          8 INNER ITERATIONS.
    ------------------------------------------------

 OUTPUT CONTROL FOR STRESS PERIOD    1   TIME STEP  748
    SAVE HEAD FOR ALL LAYERS
 SOLVING FOR ZETA FOR LAYER     1 ZONE     2

     594 UPPER PART EQS.       585 LOWER PART EQS.    BAND WIDTH + 1 =   30
 STRESS PERIOD=  1 TIMESTEP=748 LAYER=  1 ZONE=  2 ACTIVE CELLS= 1179 NUMBER OF EQUATIONS=    1179
 SOLVING FOR ZETA FOR LAYER     2 ZONE     2

     613 UPPER PART EQS.       612 LOWER PART EQS.    BAND WIDTH + 1 =   34
 STRESS PERIOD=  1 TIMESTEP=748 LAYER=  2 ZONE=  2 ACTIVE CELLS= 1225 NUMBER OF EQUATIONS=    1225
 UBUDSV SAVING "      ZETASRF  1" ON UNIT 55 AT TIME STEP748, STRESS PERIOD    1

 HEAD WILL BE SAVED ON UNIT   51 AT END OF TIME STEP  748, STRESS PERIOD    1
 
 SOLVING FOR HEAD 
                                                   Max.-Head-Change                         Max.-Flux-Residual
  Residual-Control   Outer-Iter.   Inner-Iter.     Column Row Layer    Maximum-Head-Change  Column Row Layer    Maximum-Flux-Residual          L2-NORM 
          0                 1           1            48   34     1       0.8933969165E-03      35   13    1         0.5125665408E+00      0.3674432380E+01
          0                 2           1            44   31     1       0.9923694011E-04      45   34    1         0.1782701940E-01      0.1237711482E+00
          0                 3           1            42   32     2       0.5927194885E-04      47   30    1         0.4438198806E-02      0.3792945700E-01
          0                 4           1            44   33     1       0.2296177998E-04      44   33    1         0.2143424052E-02      0.2151048972E-01
          0                 5           1            42   32     2       0.2370963566E-04      47   30    1         0.1523033829E-02      0.1569085884E-01
          0                 6           1            44   33     1       0.1224701355E-04      44   33    1         0.1148860212E-02      0.1260869530E-01
          0                 7           1            42   32     2       0.1558560625E-04      47   30    1         0.7831149004E-03      0.1054962063E-01
          0                 8           1            38   32     2       0.7875080435E-05      44   33    1         0.7604177327E-03      0.9298007489E-02

    ------------------------------------------------
       NWT REQUIRED            8 OUTER ITERATIONS 
       AND A TOTAL OF          8 INNER ITERATIONS.
    ------------------------------------------------

 OUTPUT CONTROL FOR STRESS PERIOD    1   TIME STEP  749
    SAVE HEAD FOR ALL LAYERS
 SOLVING FOR ZETA FOR LAYER     1 ZONE     2

     596 UPPER PART EQS.       592 LOWER PART EQS.    BAND WIDTH + 1 =   25
 STRESS PERIOD=  1 TIMESTEP=749 LAYER=  1 ZONE=  2 ACTIVE CELLS= 1188 NUMBER OF EQUATIONS=    1188
 SOLVING FOR ZETA FOR LAYER     2 ZONE     2

     613 UPPER PART EQS.       612 LOWER PART EQS.    BAND WIDTH + 1 =   34
 STRESS PERIOD=  1 TIMESTEP=749 LAYER=  2 ZONE=  2 ACTIVE CELLS= 1225 NUMBER OF EQUATIONS=    1225
 UBUDSV SAVING "      ZETASRF  1" ON UNIT 55 AT TIME STEP749, STRESS PERIOD    1

 HEAD WILL BE SAVED ON UNIT   51 AT END OF TIME STEP  749, STRESS PERIOD    1
 
 SOLVING FOR HEAD 
                                                   Max.-Head-Change                         Max.-Flux-Residual
  Residual-Control   Outer-Iter.   Inner-Iter.     Column Row Layer    Maximum-Head-Change  Column Row Layer    Maximum-Flux-Residual          L2-NORM 
          0                 1           1            48   31     1      -0.7009482214E-03      27   14    1        -0.5090417453E+00      0.3008265710E+01
          0                 2           1            45   32     1      -0.3512483316E-04      45   32    1        -0.1286376863E-01      0.6904770151E-01
          0                 3           1            43   31     2      -0.1357857290E-04      47   30    1        -0.1415085045E-02      0.1163355221E-01
          0                 4           1            44   33     1      -0.6125462158E-05      44   33    1        -0.5913511963E-03      0.5028649753E-02

    ------------------------------------------------
       NWT REQUIRED            4 OUTER ITERATIONS 
       AND A TOTAL OF          4 INNER ITERATIONS.
    ------------------------------------------------

 OUTPUT CONTROL FOR STRESS PERIOD    1   TIME STEP  750
    SAVE HEAD FOR ALL LAYERS
 SOLVING FOR ZETA FOR LAYER     1 ZONE     2

     588 UPPER PART EQS.       590 LOWER PART EQS.    BAND WIDTH + 1 =   25
 STRESS PERIOD=  1 TIMESTEP=750 LAYER=  1 ZONE=  2 ACTIVE CELLS= 1178 NUMBER OF EQUATIONS=    1178
 SOLVING FOR ZETA FOR LAYER     2 ZONE     2

     613 UPPER PART EQS.       612 LOWER PART EQS.    BAND WIDTH + 1 =   34
 STRESS PERIOD=  1 TIMESTEP=750 LAYER=  2 ZONE=  2 ACTIVE CELLS= 1225 NUMBER OF EQUATIONS=    1225
 UBUDSV SAVING "      ZETASRF  1" ON UNIT 55 AT TIME STEP750, STRESS PERIOD    1

 HEAD WILL BE SAVED ON UNIT   51 AT END OF TIME STEP  750, STRESS PERIOD    1
 
 SOLVING FOR HEAD 
                                                   Max.-Head-Change                         Max.-Flux-Residual
  Residual-Control   Outer-Iter.   Inner-Iter.     Column Row Layer    Maximum-Head-Change  Column Row Layer    Maximum-Flux-Residual          L2-NORM 
          0                 1           1            33   48     1       0.7437313573E-03      27   14    1         0.4958594473E+00      0.3572004461E+01
          0                 2           1            30   47     1       0.4981461381E-04      30   47    1         0.1320987012E-01      0.8627309618E-01
          0                 3           1            33   44     1       0.2646942260E-04      34   47    1         0.2222688392E-02      0.2083889959E-01
          0                 4           1            32   20     2       0.1058230447E-04      30   47    1         0.1027672926E-02      0.9980435276E-02
          0                 5           1            33   44     1       0.8325792700E-05      34   47    1         0.6359733195E-03      0.6503475872E-02

    ------------------------------------------------
       NWT REQUIRED            5 OUTER ITERATIONS 
       AND A TOTAL OF          5 INNER ITERATIONS.
    ------------------------------------------------

 OUTPUT CONTROL FOR STRESS PERIOD    1   TIME STEP  751
    SAVE HEAD FOR ALL LAYERS
 SOLVING FOR ZETA FOR LAYER     1 ZONE     2

     580 UPPER PART EQS.       591 LOWER PART EQS.    BAND WIDTH + 1 =   31
 STRESS PERIOD=  1 TIMESTEP=751 LAYER=  1 ZONE=  2 ACTIVE CELLS= 1171 NUMBER OF EQUATIONS=    1171
 SOLVING FOR ZETA FOR LAYER     2 ZONE     2

     613 UPPER PART EQS.       612 LOWER PART EQS.    BAND WIDTH + 1 =   34
 STRESS PERIOD=  1 TIMESTEP=751 LAYER=  2 ZONE=  2 ACTIVE CELLS= 1225 NUMBER OF EQUATIONS=    1225
 UBUDSV SAVING "      ZETASRF  1" ON UNIT 55 AT TIME STEP751, STRESS PERIOD    1

 HEAD WILL BE SAVED ON UNIT   51 AT END OF TIME STEP  751, STRESS PERIOD    1
 
 SOLVING FOR HEAD 
                                                   Max.-Head-Change                         Max.-Flux-Residual
  Residual-Control   Outer-Iter.   Inner-Iter.     Column Row Layer    Maximum-Head-Change  Column Row Layer    Maximum-Flux-Residual          L2-NORM 
          0                 1           1            48   31     1      -0.6040244086E-03      14   35    1        -0.5066764705E+00      0.3425123252E+01
          0                 2           1            19   18     1       0.2080322261E-04      45   32    1        -0.9999540179E-02      0.6327509382E-01
          0                 3           1            20   43     1       0.7515288990E-05      20   45    1         0.7130579143E-03      0.9487210724E-02

    ------------------------------------------------
       NWT REQUIRED            3 OUTER ITERATIONS 
       AND A TOTAL OF          3 INNER ITERATIONS.
    ------------------------------------------------

 OUTPUT CONTROL FOR STRESS PERIOD    1   TIME STEP  752
    SAVE HEAD FOR ALL LAYERS
 SOLVING FOR ZETA FOR LAYER     1 ZONE     2

     591 UPPER PART EQS.       592 LOWER PART EQS.    BAND WIDTH + 1 =   24
 STRESS PERIOD=  1 TIMESTEP=752 LAYER=  1 ZONE=  2 ACTIVE CELLS= 1183 NUMBER OF EQUATIONS=    1183
 SOLVING FOR ZETA FOR LAYER     2 ZONE     2

     613 UPPER PART EQS.       612 LOWER PART EQS.    BAND WIDTH + 1 =   34
 STRESS PERIOD=  1 TIMESTEP=752 LAYER=  2 ZONE=  2 ACTIVE CELLS= 1225 NUMBER OF EQUATIONS=    1225
 UBUDSV SAVING "      ZETASRF  1" ON UNIT 55 AT TIME STEP752, STRESS PERIOD    1

 HEAD WILL BE SAVED ON UNIT   51 AT END OF TIME STEP  752, STRESS PERIOD    1
 
 SOLVING FOR HEAD 
                                                   Max.-Head-Change                         Max.-Flux-Residual
  Residual-Control   Outer-Iter.   Inner-Iter.     Column Row Layer    Maximum-Head-Change  Column Row Layer    Maximum-Flux-Residual          L2-NORM 
          0                 1           1            34   49     1       0.8059613039E-03      35   14    1        -0.5070314875E+00      0.3433775332E+01
          0                 2           1            44   33     1       0.5625171539E-04      31   14    1         0.1559874340E-01      0.9065477994E-01
          0                 3           1            42   32     2       0.3338726549E-04      46   31    1         0.2593125821E-02      0.2469504374E-01
          0                 4           1            19   30     1       0.1491467523E-04      44   33    1         0.1304453343E-02      0.1355829057E-01
          0                 5           1            21   31     2       0.1279823778E-04      15   30    1         0.9504924863E-03      0.9414375614E-02
          0                 6           1            19   30     1       0.8075830719E-05      15   30    1         0.6025547711E-03      0.7186927962E-02

    ------------------------------------------------
       NWT REQUIRED            6 OUTER ITERATIONS 
       AND A TOTAL OF          6 INNER ITERATIONS.
    ------------------------------------------------

 OUTPUT CONTROL FOR STRESS PERIOD    1   TIME STEP  753
    SAVE HEAD FOR ALL LAYERS
 SOLVING FOR ZETA FOR LAYER     1 ZONE     2

     590 UPPER PART EQS.       603 LOWER PART EQS.    BAND WIDTH + 1 =   36
 STRESS PERIOD=  1 TIMESTEP=753 LAYER=  1 ZONE=  2 ACTIVE CELLS= 1193 NUMBER OF EQUATIONS=    1193
 SOLVING FOR ZETA FOR LAYER     2 ZONE     2

     613 UPPER PART EQS.       612 LOWER PART EQS.    BAND WIDTH + 1 =   34
 STRESS PERIOD=  1 TIMESTEP=753 LAYER=  2 ZONE=  2 ACTIVE CELLS= 1225 NUMBER OF EQUATIONS=    1225
 UBUDSV SAVING "      ZETASRF  1" ON UNIT 55 AT TIME STEP753, STRESS PERIOD    1

 HEAD WILL BE SAVED ON UNIT   51 AT END OF TIME STEP  753, STRESS PERIOD    1
 
 SOLVING FOR HEAD 
                                                   Max.-Head-Change                         Max.-Flux-Residual
  Residual-Control   Outer-Iter.   Inner-Iter.     Column Row Layer    Maximum-Head-Change  Column Row Layer    Maximum-Flux-Residual          L2-NORM 
          0                 1           1            13   33     1       0.8264765289E-03      27   49    1         0.5103764438E+00      0.3801164268E+01
          0                 2           1            44   31     1      -0.7779266824E-04      45   32    1        -0.1669580400E-01      0.1126017209E+00
          0                 3           1            43   31     2      -0.4130536468E-04      47   30    1        -0.3426106646E-02      0.2957116852E-01
          0                 4           1            19   30     1      -0.1606824038E-04      44   33    1        -0.1556345441E-02      0.1551753454E-01
          0                 5           1            16   33     1      -0.1481498184E-04      15   30    1        -0.1101947562E-02      0.1042054148E-01
          0                 6           1            19   30     1      -0.8729336116E-05      44   33    1        -0.7015149578E-03      0.7821072189E-02

    ------------------------------------------------
       NWT REQUIRED            6 OUTER ITERATIONS 
       AND A TOTAL OF          6 INNER ITERATIONS.
    ------------------------------------------------

 OUTPUT CONTROL FOR STRESS PERIOD    1   TIME STEP  754
    SAVE HEAD FOR ALL LAYERS
 SOLVING FOR ZETA FOR LAYER     1 ZONE     2

     593 UPPER PART EQS.       580 LOWER PART EQS.    BAND WIDTH + 1 =   30
 STRESS PERIOD=  1 TIMESTEP=754 LAYER=  1 ZONE=  2 ACTIVE CELLS= 1173 NUMBER OF EQUATIONS=    1173
 SOLVING FOR ZETA FOR LAYER     2 ZONE     2

     613 UPPER PART EQS.       612 LOWER PART EQS.    BAND WIDTH + 1 =   34
 STRESS PERIOD=  1 TIMESTEP=754 LAYER=  2 ZONE=  2 ACTIVE CELLS= 1225 NUMBER OF EQUATIONS=    1225
 UBUDSV SAVING "      ZETASRF  1" ON UNIT 55 AT TIME STEP754, STRESS PERIOD    1

 HEAD WILL BE SAVED ON UNIT   51 AT END OF TIME STEP  754, STRESS PERIOD    1
 
 SOLVING FOR HEAD 
                                                   Max.-Head-Change                         Max.-Flux-Residual
  Residual-Control   Outer-Iter.   Inner-Iter.     Column Row Layer    Maximum-Head-Change  Column Row Layer    Maximum-Flux-Residual          L2-NORM 
          0                 1           1            48   32     1       0.8220485930E-03      27   48    1         0.4934897053E+00      0.3245595726E+01
          0                 2           1            44   31     1       0.8138243336E-04      45   32    1         0.1689839511E-01      0.1008948798E+00
          0                 3           1            42   32     2       0.4696187780E-04      47   30    1         0.3581463843E-02      0.2918307272E-01
          0                 4           1            44   33     1       0.1881758490E-04      44   33    1         0.1737271513E-02      0.1757946541E-01
          0                 5           1            42   32     2       0.2077899666E-04      47   30    1         0.1278423991E-02      0.1409803987E-01
          0                 6           1            44   33     1       0.1146405102E-04      44   33    1         0.1005598492E-02      0.1225232309E-01
          0                 7           1            41   31     2       0.1414014497E-04      47   30    1         0.7854974486E-03      0.1074890242E-01
          0                 8           1            38   32     2       0.8741235145E-05      44   33    1         0.7261419817E-03      0.9746747036E-02

    ------------------------------------------------
       NWT REQUIRED            8 OUTER ITERATIONS 
       AND A TOTAL OF          8 INNER ITERATIONS.
    ------------------------------------------------

 OUTPUT CONTROL FOR STRESS PERIOD    1   TIME STEP  755
    SAVE HEAD FOR ALL LAYERS
 SOLVING FOR ZETA FOR LAYER     1 ZONE     2

     596 UPPER PART EQS.       598 LOWER PART EQS.    BAND WIDTH + 1 =   27
 STRESS PERIOD=  1 TIMESTEP=755 LAYER=  1 ZONE=  2 ACTIVE CELLS= 1194 NUMBER OF EQUATIONS=    1194
 SOLVING FOR ZETA FOR LAYER     2 ZONE     2

     613 UPPER PART EQS.       612 LOWER PART EQS.    BAND WIDTH + 1 =   34
 STRESS PERIOD=  1 TIMESTEP=755 LAYER=  2 ZONE=  2 ACTIVE CELLS= 1225 NUMBER OF EQUATIONS=    1225
 UBUDSV SAVING "      ZETASRF  1" ON UNIT 55 AT TIME STEP755, STRESS PERIOD    1

 HEAD WILL BE SAVED ON UNIT   51 AT END OF TIME STEP  755, STRESS PERIOD    1
 
 SOLVING FOR HEAD 
                                                   Max.-Head-Change                         Max.-Flux-Residual
  Residual-Control   Outer-Iter.   Inner-Iter.     Column Row Layer    Maximum-Head-Change  Column Row Layer    Maximum-Flux-Residual          L2-NORM 
          0                 1           1            33   14     1      -0.7308295326E-03      13   35    1         0.5083308101E+00      0.3316428650E+01
          0                 2           1            45   32     1      -0.4913949290E-04      31   14    1         0.1648230438E-01      0.8826123001E-01
          0                 3           1            43   31     2      -0.2546524851E-04      46   31    1        -0.2165564763E-02      0.2036345026E-01
          0                 4           1            44   33     1      -0.1238301227E-04      44   33    1        -0.1074640759E-02      0.1048730113E-01
          0                 5           1            42   32     2      -0.1041683760E-04      46   31    1        -0.7399556891E-03      0.7251417537E-02
          0                 6           1            44   33     1      -0.7135475218E-05      44   33    1        -0.5493532367E-03      0.5658204850E-02

    ------------------------------------------------
       NWT REQUIRED            6 OUTER ITERATIONS 
       AND A TOTAL OF          6 INNER ITERATIONS.
    ------------------------------------------------

 OUTPUT CONTROL FOR STRESS PERIOD    1   TIME STEP  756
    SAVE HEAD FOR ALL LAYERS
 SOLVING FOR ZETA FOR LAYER     1 ZONE     2

     598 UPPER PART EQS.       589 LOWER PART EQS.    BAND WIDTH + 1 =   28
 STRESS PERIOD=  1 TIMESTEP=756 LAYER=  1 ZONE=  2 ACTIVE CELLS= 1187 NUMBER OF EQUATIONS=    1187
 SOLVING FOR ZETA FOR LAYER     2 ZONE     2

     613 UPPER PART EQS.       612 LOWER PART EQS.    BAND WIDTH + 1 =   34
 STRESS PERIOD=  1 TIMESTEP=756 LAYER=  2 ZONE=  2 ACTIVE CELLS= 1225 NUMBER OF EQUATIONS=    1225
 UBUDSV SAVING "      ZETASRF  1" ON UNIT 55 AT TIME STEP756, STRESS PERIOD    1

 HEAD WILL BE SAVED ON UNIT   51 AT END OF TIME STEP  756, STRESS PERIOD    1
 
 SOLVING FOR HEAD 
                                                   Max.-Head-Change                         Max.-Flux-Residual
  Residual-Control   Outer-Iter.   Inner-Iter.     Column Row Layer    Maximum-Head-Change  Column Row Layer    Maximum-Flux-Residual          L2-NORM 
          0                 1           1            33   48     1       0.7041971306E-03      35   48    1        -0.5055318431E+00      0.3791807265E+01
          0                 2           1            30   17     1       0.2576545994E-04      30   49    1         0.1238828684E-01      0.7237104785E-01
          0                 3           1            33   18     1       0.1193943713E-04      33   16    1         0.1210463283E-02      0.1235330756E-01
          0                 4           1            32   20     2       0.3814902208E-05      36   45    1         0.3466221468E-03      0.4556410402E-02

    ------------------------------------------------
       NWT REQUIRED            4 OUTER ITERATIONS 
       AND A TOTAL OF          4 INNER ITERATIONS.
    ------------------------------------------------

 OUTPUT CONTROL FOR STRESS PERIOD    1   TIME STEP  757
    SAVE HEAD FOR ALL LAYERS
 SOLVING FOR ZETA FOR LAYER     1 ZONE     2

     588 UPPER PART EQS.       588 LOWER PART EQS.    BAND WIDTH + 1 =   25
 STRESS PERIOD=  1 TIMESTEP=757 LAYER=  1 ZONE=  2 ACTIVE CELLS= 1176 NUMBER OF EQUATIONS=    1176
 SOLVING FOR ZETA FOR LAYER     2 ZONE     2

     613 UPPER PART EQS.       612 LOWER PART EQS.    BAND WIDTH + 1 =   34
 STRESS PERIOD=  1 TIMESTEP=757 LAYER=  2 ZONE=  2 ACTIVE CELLS= 1225 NUMBER OF EQUATIONS=    1225
 UBUDSV SAVING "      ZETASRF  1" ON UNIT 55 AT TIME STEP757, STRESS PERIOD    1

 HEAD WILL BE SAVED ON UNIT   51 AT END OF TIME STEP  757, STRESS PERIOD    1
 
 SOLVING FOR HEAD 
                                                   Max.-Head-Change                         Max.-Flux-Residual
  Residual-Control   Outer-Iter.   Inner-Iter.     Column Row Layer    Maximum-Head-Change  Column Row Layer    Maximum-Flux-Residual          L2-NORM 
          0                 1           1            27   14     1      -0.7656716438E-03      27   14    1        -0.5055840351E+00      0.3427998305E+01
          0                 2           1            32   49     1       0.3609013107E-04      32   49    1         0.1495637364E-01      0.7881426589E-01
          0                 3           1            27   46     1      -0.1254571133E-04      27   46    1        -0.1501959054E-02      0.1419816243E-01
          0                 4           1            44   29     1       0.7085507130E-05      45   32    1         0.6653965912E-03      0.6908755401E-02

    ------------------------------------------------
       NWT REQUIRED            4 OUTER ITERATIONS 
       AND A TOTAL OF          4 INNER ITERATIONS.
    ------------------------------------------------

 OUTPUT CONTROL FOR STRESS PERIOD    1   TIME STEP  758
    SAVE HEAD FOR ALL LAYERS
 SOLVING FOR ZETA FOR LAYER     1 ZONE     2

     596 UPPER PART EQS.       601 LOWER PART EQS.    BAND WIDTH + 1 =   28
 STRESS PERIOD=  1 TIMESTEP=758 LAYER=  1 ZONE=  2 ACTIVE CELLS= 1197 NUMBER OF EQUATIONS=    1197
 SOLVING FOR ZETA FOR LAYER     2 ZONE     2

     613 UPPER PART EQS.       612 LOWER PART EQS.    BAND WIDTH + 1 =   34
 STRESS PERIOD=  1 TIMESTEP=758 LAYER=  2 ZONE=  2 ACTIVE CELLS= 1225 NUMBER OF EQUATIONS=    1225
 UBUDSV SAVING "      ZETASRF  1" ON UNIT 55 AT TIME STEP758, STRESS PERIOD    1

 HEAD WILL BE SAVED ON UNIT   51 AT END OF TIME STEP  758, STRESS PERIOD    1
 
 SOLVING FOR HEAD 
                                                   Max.-Head-Change                         Max.-Flux-Residual
  Residual-Control   Outer-Iter.   Inner-Iter.     Column Row Layer    Maximum-Head-Change  Column Row Layer    Maximum-Flux-Residual          L2-NORM 
          0                 1           1            27   14     1       0.7200585952E-03      27   48    1         0.4916260701E+00      0.3242830824E+01
          0                 2           1            45   32     1       0.4515096994E-04      31   14    1         0.1691017972E-01      0.7398737689E-01
          0                 3           1            43   31     2       0.2507854086E-04      46   31    1         0.2075542004E-02      0.1764283742E-01
          0                 4           1            20   32     2       0.1282136652E-04      44   33    1         0.1021867350E-02      0.1109864882E-01
          0                 5           1            22   30     2       0.1127893718E-04      46   31    1         0.8011509082E-03      0.9028652020E-02
          0                 6           1            24   31     1       0.8384417521E-05      44   33    1         0.5863856281E-03      0.7881772636E-02

    ------------------------------------------------
       NWT REQUIRED            6 OUTER ITERATIONS 
       AND A TOTAL OF          6 INNER ITERATIONS.
    ------------------------------------------------

 OUTPUT CONTROL FOR STRESS PERIOD    1   TIME STEP  759
    SAVE HEAD FOR ALL LAYERS
 SOLVING FOR ZETA FOR LAYER     1 ZONE     2

     596 UPPER PART EQS.       607 LOWER PART EQS.    BAND WIDTH + 1 =   30
 STRESS PERIOD=  1 TIMESTEP=759 LAYER=  1 ZONE=  2 ACTIVE CELLS= 1203 NUMBER OF EQUATIONS=    1203
 SOLVING FOR ZETA FOR LAYER     2 ZONE     2

     613 UPPER PART EQS.       612 LOWER PART EQS.    BAND WIDTH + 1 =   34
 STRESS PERIOD=  1 TIMESTEP=759 LAYER=  2 ZONE=  2 ACTIVE CELLS= 1225 NUMBER OF EQUATIONS=    1225
 UBUDSV SAVING "      ZETASRF  1" ON UNIT 55 AT TIME STEP759, STRESS PERIOD    1

 HEAD WILL BE SAVED ON UNIT   51 AT END OF TIME STEP  759, STRESS PERIOD    1
 
 SOLVING FOR HEAD 
                                                   Max.-Head-Change                         Max.-Flux-Residual
  Residual-Control   Outer-Iter.   Inner-Iter.     Column Row Layer    Maximum-Head-Change  Column Row Layer    Maximum-Flux-Residual          L2-NORM 
          0                 1           1            48   34     1      -0.8878386043E-03      13   35    1         0.5028387181E+00      0.3547063436E+01
          0                 2           1            44   31     1      -0.9388531639E-04      45   34    1        -0.1750865009E-01      0.1205323783E+00
          0                 3           1            43   31     2      -0.5455655550E-04      47   30    1        -0.4184509460E-02      0.3544428337E-01
          0                 4           1            44   31     1      -0.2007613419E-04      44   33    1        -0.1936839850E-02      0.1946711744E-01
          0                 5           1            16   33     1      -0.1988794820E-04      47   30    1        -0.1436317298E-02      0.1347552978E-01
          0                 6           1            19   30     1      -0.1003919787E-04      44   33    1        -0.9310564900E-03      0.1029909762E-01
          0                 7           1            21   31     2      -0.1145043029E-04      47   30    1        -0.6855717323E-03      0.8275387942E-02
          0                 8           1            19   30     1      -0.6105693152E-05      44   33    1        -0.5471834676E-03      0.7094030522E-02

    ------------------------------------------------
       NWT REQUIRED            8 OUTER ITERATIONS 
       AND A TOTAL OF          8 INNER ITERATIONS.
    ------------------------------------------------

 OUTPUT CONTROL FOR STRESS PERIOD    1   TIME STEP  760
    SAVE HEAD FOR ALL LAYERS
 SOLVING FOR ZETA FOR LAYER     1 ZONE     2

     584 UPPER PART EQS.       590 LOWER PART EQS.    BAND WIDTH + 1 =   27
 STRESS PERIOD=  1 TIMESTEP=760 LAYER=  1 ZONE=  2 ACTIVE CELLS= 1174 NUMBER OF EQUATIONS=    1174
 SOLVING FOR ZETA FOR LAYER     2 ZONE     2

     613 UPPER PART EQS.       612 LOWER PART EQS.    BAND WIDTH + 1 =   34
 STRESS PERIOD=  1 TIMESTEP=760 LAYER=  2 ZONE=  2 ACTIVE CELLS= 1225 NUMBER OF EQUATIONS=    1225
 UBUDSV SAVING "      ZETASRF  1" ON UNIT 55 AT TIME STEP760, STRESS PERIOD    1

 HEAD WILL BE SAVED ON UNIT   51 AT END OF TIME STEP  760, STRESS PERIOD    1
 
 SOLVING FOR HEAD 
                                                   Max.-Head-Change                         Max.-Flux-Residual
  Residual-Control   Outer-Iter.   Inner-Iter.     Column Row Layer    Maximum-Head-Change  Column Row Layer    Maximum-Flux-Residual          L2-NORM 
          0                 1           1            48   34     1       0.8806160122E-03      35   13    1         0.5091991214E+00      0.3459602090E+01
          0                 2           1            44   31     1       0.9685285680E-04      45   34    1         0.1755186099E-01      0.1179195320E+00
          0                 3           1            42   32     2       0.5866533245E-04      47   30    1         0.4264244068E-02      0.3646525027E-01
          0                 4           1            44   33     1       0.2263449956E-04      44   33    1         0.2082873814E-02      0.2147632063E-01
          0                 5           1            42   32     2       0.2432447684E-04      47   30    1         0.1490781521E-02      0.1636260730E-01
          0                 6           1            44   33     1       0.1274620145E-04      44   33    1         0.1164349514E-02      0.1362157540E-01
          0                 7           1            41   31     2       0.1640191639E-04      47   30    1         0.8159241766E-03      0.1171589158E-01
          0                 8           1            38   32     2       0.8845087578E-05      44   33    1         0.8189674641E-03      0.1045983387E-01

    ------------------------------------------------
       NWT REQUIRED            8 OUTER ITERATIONS 
       AND A TOTAL OF          8 INNER ITERATIONS.
    ------------------------------------------------

 OUTPUT CONTROL FOR STRESS PERIOD    1   TIME STEP  761
    SAVE HEAD FOR ALL LAYERS
 SOLVING FOR ZETA FOR LAYER     1 ZONE     2

     592 UPPER PART EQS.       603 LOWER PART EQS.    BAND WIDTH + 1 =   32
 STRESS PERIOD=  1 TIMESTEP=761 LAYER=  1 ZONE=  2 ACTIVE CELLS= 1195 NUMBER OF EQUATIONS=    1195
 SOLVING FOR ZETA FOR LAYER     2 ZONE     2

     613 UPPER PART EQS.       612 LOWER PART EQS.    BAND WIDTH + 1 =   34
 STRESS PERIOD=  1 TIMESTEP=761 LAYER=  2 ZONE=  2 ACTIVE CELLS= 1225 NUMBER OF EQUATIONS=    1225
 UBUDSV SAVING "      ZETASRF  1" ON UNIT 55 AT TIME STEP761, STRESS PERIOD    1

 HEAD WILL BE SAVED ON UNIT   51 AT END OF TIME STEP  761, STRESS PERIOD    1
 
 SOLVING FOR HEAD 
                                                   Max.-Head-Change                         Max.-Flux-Residual
  Residual-Control   Outer-Iter.   Inner-Iter.     Column Row Layer    Maximum-Head-Change  Column Row Layer    Maximum-Flux-Residual          L2-NORM 
          0                 1           1            48   31     1      -0.7655374457E-03      27   48    1        -0.5040288377E+00      0.3378834381E+01
          0                 2           1            44   33     1      -0.5712587697E-04      45   32    1        -0.1489965748E-01      0.8843049277E-01
          0                 3           1            43   31     2      -0.2516325462E-04      47   30    1        -0.2489107538E-02      0.1942400562E-01
          0                 4           1            44   33     1      -0.1196219557E-04      44   33    1        -0.1136989009E-02      0.1024157651E-01
          0                 5           1            42   32     2      -0.1010462795E-04      47   30    1        -0.7050385071E-03      0.7834342255E-02
          0                 6           1            44   33     1      -0.7448274334E-05      44   33    1        -0.5795737484E-03      0.6794860397E-02

    ------------------------------------------------
       NWT REQUIRED            6 OUTER ITERATIONS 
       AND A TOTAL OF          6 INNER ITERATIONS.
    ------------------------------------------------

 OUTPUT CONTROL FOR STRESS PERIOD    1   TIME STEP  762
    SAVE HEAD FOR ALL LAYERS
 SOLVING FOR ZETA FOR LAYER     1 ZONE     2

     586 UPPER PART EQS.       584 LOWER PART EQS.    BAND WIDTH + 1 =   23
 STRESS PERIOD=  1 TIMESTEP=762 LAYER=  1 ZONE=  2 ACTIVE CELLS= 1170 NUMBER OF EQUATIONS=    1170
 SOLVING FOR ZETA FOR LAYER     2 ZONE     2

     613 UPPER PART EQS.       612 LOWER PART EQS.    BAND WIDTH + 1 =   34
 STRESS PERIOD=  1 TIMESTEP=762 LAYER=  2 ZONE=  2 ACTIVE CELLS= 1225 NUMBER OF EQUATIONS=    1225
 UBUDSV SAVING "      ZETASRF  1" ON UNIT 55 AT TIME STEP762, STRESS PERIOD    1

 HEAD WILL BE SAVED ON UNIT   51 AT END OF TIME STEP  762, STRESS PERIOD    1
 
 SOLVING FOR HEAD 
                                                   Max.-Head-Change                         Max.-Flux-Residual
  Residual-Control   Outer-Iter.   Inner-Iter.     Column Row Layer    Maximum-Head-Change  Column Row Layer    Maximum-Flux-Residual          L2-NORM 
          0                 1           1            33   48     1       0.7365321092E-03      27   48    1         0.4904794158E+00      0.3737703063E+01
          0                 2           1            31   16     1       0.5441707210E-04      45   32    1         0.1369884826E-01      0.9937828517E-01
          0                 3           1            32   44     2       0.2597295623E-04      46   31    1         0.2284864414E-02      0.2405862544E-01
          0                 4           1            32   20     2       0.1186391939E-04      44   33    1         0.1044402107E-02      0.1223278560E-01
          0                 5           1            35   41     2       0.1070635638E-04      46   31    1         0.6545048511E-03      0.9428225841E-02
          0                 6           1            38   34     2       0.7744504292E-05      44   33    1         0.5968884361E-03      0.8221769939E-02

    ------------------------------------------------
       NWT REQUIRED            6 OUTER ITERATIONS 
       AND A TOTAL OF          6 INNER ITERATIONS.
    ------------------------------------------------

 OUTPUT CONTROL FOR STRESS PERIOD    1   TIME STEP  763
    SAVE HEAD FOR ALL LAYERS
 SOLVING FOR ZETA FOR LAYER     1 ZONE     2

     588 UPPER PART EQS.       596 LOWER PART EQS.    BAND WIDTH + 1 =   34
 STRESS PERIOD=  1 TIMESTEP=763 LAYER=  1 ZONE=  2 ACTIVE CELLS= 1184 NUMBER OF EQUATIONS=    1184
 SOLVING FOR ZETA FOR LAYER     2 ZONE     2

     613 UPPER PART EQS.       612 LOWER PART EQS.    BAND WIDTH + 1 =   34
 STRESS PERIOD=  1 TIMESTEP=763 LAYER=  2 ZONE=  2 ACTIVE CELLS= 1225 NUMBER OF EQUATIONS=    1225
 UBUDSV SAVING "      ZETASRF  1" ON UNIT 55 AT TIME STEP763, STRESS PERIOD    1

 HEAD WILL BE SAVED ON UNIT   51 AT END OF TIME STEP  763, STRESS PERIOD    1
 
 SOLVING FOR HEAD 
                                                   Max.-Head-Change                         Max.-Flux-Residual
  Residual-Control   Outer-Iter.   Inner-Iter.     Column Row Layer    Maximum-Head-Change  Column Row Layer    Maximum-Flux-Residual          L2-NORM 
          0                 1           1            48   31     1      -0.6661440213E-03      14   35    1        -0.5013879776E+00      0.3250121606E+01
          0                 2           1            45   32     1      -0.3251124519E-04      45   32    1        -0.1187754270E-01      0.6493769623E-01
          0                 3           1            17   32     1      -0.1161743344E-04      46   31    1        -0.1355195176E-02      0.1160474446E-01
          0                 4           1            44   33     1      -0.4386605505E-05      44   33    1        -0.5612484702E-03      0.4267900853E-02

    ------------------------------------------------
       NWT REQUIRED            4 OUTER ITERATIONS 
       AND A TOTAL OF          4 INNER ITERATIONS.
    ------------------------------------------------

 OUTPUT CONTROL FOR STRESS PERIOD    1   TIME STEP  764
    SAVE HEAD FOR ALL LAYERS
 SOLVING FOR ZETA FOR LAYER     1 ZONE     2

     601 UPPER PART EQS.       592 LOWER PART EQS.    BAND WIDTH + 1 =   31
 STRESS PERIOD=  1 TIMESTEP=764 LAYER=  1 ZONE=  2 ACTIVE CELLS= 1193 NUMBER OF EQUATIONS=    1193
 SOLVING FOR ZETA FOR LAYER     2 ZONE     2

     613 UPPER PART EQS.       612 LOWER PART EQS.    BAND WIDTH + 1 =   34
 STRESS PERIOD=  1 TIMESTEP=764 LAYER=  2 ZONE=  2 ACTIVE CELLS= 1225 NUMBER OF EQUATIONS=    1225
 UBUDSV SAVING "      ZETASRF  1" ON UNIT 55 AT TIME STEP764, STRESS PERIOD    1

 HEAD WILL BE SAVED ON UNIT   51 AT END OF TIME STEP  764, STRESS PERIOD    1
 
 SOLVING FOR HEAD 
                                                   Max.-Head-Change                         Max.-Flux-Residual
  Residual-Control   Outer-Iter.   Inner-Iter.     Column Row Layer    Maximum-Head-Change  Column Row Layer    Maximum-Flux-Residual          L2-NORM 
          0                 1           1            34   49     1       0.8039964096E-03      35   14    1        -0.5016980994E+00      0.3550664789E+01
          0                 2           1            32   49     1      -0.3482572003E-04      31   14    1         0.1597721317E-01      0.7814858450E-01
          0                 3           1            35   46     1      -0.1919467519E-04      35   46    1        -0.1742029553E-02      0.1742827077E-01
          0                 4           1            19   30     1       0.9040242181E-05      35   50    1        -0.7836395222E-03      0.8909025895E-02

    ------------------------------------------------
       NWT REQUIRED            4 OUTER ITERATIONS 
       AND A TOTAL OF          4 INNER ITERATIONS.
    ------------------------------------------------

 OUTPUT CONTROL FOR STRESS PERIOD    1   TIME STEP  765
    SAVE HEAD FOR ALL LAYERS
 SOLVING FOR ZETA FOR LAYER     1 ZONE     2

     597 UPPER PART EQS.       594 LOWER PART EQS.    BAND WIDTH + 1 =   27
 STRESS PERIOD=  1 TIMESTEP=765 LAYER=  1 ZONE=  2 ACTIVE CELLS= 1191 NUMBER OF EQUATIONS=    1191
 SOLVING FOR ZETA FOR LAYER     2 ZONE     2

     613 UPPER PART EQS.       612 LOWER PART EQS.    BAND WIDTH + 1 =   34
 STRESS PERIOD=  1 TIMESTEP=765 LAYER=  2 ZONE=  2 ACTIVE CELLS= 1225 NUMBER OF EQUATIONS=    1225
 UBUDSV SAVING "      ZETASRF  1" ON UNIT 55 AT TIME STEP765, STRESS PERIOD    1

 HEAD WILL BE SAVED ON UNIT   51 AT END OF TIME STEP  765, STRESS PERIOD    1
 
 SOLVING FOR HEAD 
                                                   Max.-Head-Change                         Max.-Flux-Residual
  Residual-Control   Outer-Iter.   Inner-Iter.     Column Row Layer    Maximum-Head-Change  Column Row Layer    Maximum-Flux-Residual          L2-NORM 
          0                 1           1            34   14     1       0.7648194769E-03      27   49    1         0.5074183076E+00      0.3626854160E+01
          0                 2           1            31   16     1       0.3646317574E-04      31   14    1        -0.1543612662E-01      0.8222567058E-01
          0                 3           1            34   45     1       0.1889082114E-04      35   46    1         0.1747624501E-02      0.1779184861E-01
          0                 4           1            19   30     1      -0.6337910490E-05      44   33    1        -0.6257064597E-03      0.7851248154E-02

    ------------------------------------------------
       NWT REQUIRED            4 OUTER ITERATIONS 
       AND A TOTAL OF          4 INNER ITERATIONS.
    ------------------------------------------------

 OUTPUT CONTROL FOR STRESS PERIOD    1   TIME STEP  766
    SAVE HEAD FOR ALL LAYERS
 SOLVING FOR ZETA FOR LAYER     1 ZONE     2

     587 UPPER PART EQS.       589 LOWER PART EQS.    BAND WIDTH + 1 =   27
 STRESS PERIOD=  1 TIMESTEP=766 LAYER=  1 ZONE=  2 ACTIVE CELLS= 1176 NUMBER OF EQUATIONS=    1176
 SOLVING FOR ZETA FOR LAYER     2 ZONE     2

     613 UPPER PART EQS.       612 LOWER PART EQS.    BAND WIDTH + 1 =   34
 STRESS PERIOD=  1 TIMESTEP=766 LAYER=  2 ZONE=  2 ACTIVE CELLS= 1225 NUMBER OF EQUATIONS=    1225
 UBUDSV SAVING "      ZETASRF  1" ON UNIT 55 AT TIME STEP766, STRESS PERIOD    1

 HEAD WILL BE SAVED ON UNIT   51 AT END OF TIME STEP  766, STRESS PERIOD    1
 
 SOLVING FOR HEAD 
                                                   Max.-Head-Change                         Max.-Flux-Residual
  Residual-Control   Outer-Iter.   Inner-Iter.     Column Row Layer    Maximum-Head-Change  Column Row Layer    Maximum-Flux-Residual          L2-NORM 
          0                 1           1            48   31     1       0.7309057861E-03      27   48    1         0.4880474986E+00      0.2950756609E+01
          0                 2           1            44   33     1       0.5815248530E-04      45   32    1         0.1456467452E-01      0.7920935934E-01
          0                 3           1            42   32     2       0.3549998026E-04      46   31    1         0.2541025572E-02      0.2308956045E-01
          0                 4           1            43   32     1       0.1540065046E-04      44   33    1         0.1327475712E-02      0.1474019671E-01
          0                 5           1            41   31     2       0.1701346536E-04      46   31    1         0.1042043860E-02      0.1229852283E-01
          0                 6           1            38   32     2       0.1085202363E-04      44   33    1         0.8375173753E-03      0.1094636730E-01
          0                 7           1            34   32     2       0.1200081614E-04      46   31    1         0.7186312498E-03      0.9717433544E-02
          0                 8           1            38   32     2       0.8768639679E-05      44   33    1         0.6319008410E-03      0.8828704895E-02

    ------------------------------------------------
       NWT REQUIRED            8 OUTER ITERATIONS 
       AND A TOTAL OF          8 INNER ITERATIONS.
    ------------------------------------------------

 OUTPUT CONTROL FOR STRESS PERIOD    1   TIME STEP  767
    SAVE HEAD FOR ALL LAYERS
 SOLVING FOR ZETA FOR LAYER     1 ZONE     2

     591 UPPER PART EQS.       598 LOWER PART EQS.    BAND WIDTH + 1 =   30
 STRESS PERIOD=  1 TIMESTEP=767 LAYER=  1 ZONE=  2 ACTIVE CELLS= 1189 NUMBER OF EQUATIONS=    1189
 SOLVING FOR ZETA FOR LAYER     2 ZONE     2

     613 UPPER PART EQS.       612 LOWER PART EQS.    BAND WIDTH + 1 =   34
 STRESS PERIOD=  1 TIMESTEP=767 LAYER=  2 ZONE=  2 ACTIVE CELLS= 1225 NUMBER OF EQUATIONS=    1225
 UBUDSV SAVING "      ZETASRF  1" ON UNIT 55 AT TIME STEP767, STRESS PERIOD    1

 HEAD WILL BE SAVED ON UNIT   51 AT END OF TIME STEP  767, STRESS PERIOD    1
 
 SOLVING FOR HEAD 
                                                   Max.-Head-Change                         Max.-Flux-Residual
  Residual-Control   Outer-Iter.   Inner-Iter.     Column Row Layer    Maximum-Head-Change  Column Row Layer    Maximum-Flux-Residual          L2-NORM 
          0                 1           1            34   48     1      -0.8266038037E-03      13   35    1         0.5049933415E+00      0.3720671003E+01
          0                 2           1            44   33     1      -0.7202140594E-04      31   14    1         0.1879584686E-01      0.1136926415E+00
          0                 3           1            43   31     2      -0.3953191447E-04      47   30    1        -0.3162532703E-02      0.2889446340E-01
          0                 4           1            44   33     1      -0.1946581668E-04      44   33    1        -0.1619030669E-02      0.1684533075E-01
          0                 5           1            42   32     2      -0.1852671624E-04      47   34    1        -0.1230770367E-02      0.1295014407E-01
          0                 6           1            44   33     1      -0.1211512662E-04      44   33    1        -0.9202325065E-03      0.1093929469E-01
          0                 7           1            42   32     2      -0.1301977567E-04      47   34    1        -0.7537260227E-03      0.9466147016E-02
          0                 8           1            38   32     2      -0.8523391065E-05      44   33    1        -0.6478284682E-03      0.8455652572E-02

    ------------------------------------------------
       NWT REQUIRED            8 OUTER ITERATIONS 
       AND A TOTAL OF          8 INNER ITERATIONS.
    ------------------------------------------------

 OUTPUT CONTROL FOR STRESS PERIOD    1   TIME STEP  768
    SAVE HEAD FOR ALL LAYERS
 SOLVING FOR ZETA FOR LAYER     1 ZONE     2

     590 UPPER PART EQS.       591 LOWER PART EQS.    BAND WIDTH + 1 =   24
 STRESS PERIOD=  1 TIMESTEP=768 LAYER=  1 ZONE=  2 ACTIVE CELLS= 1181 NUMBER OF EQUATIONS=    1181
 SOLVING FOR ZETA FOR LAYER     2 ZONE     2

     613 UPPER PART EQS.       612 LOWER PART EQS.    BAND WIDTH + 1 =   34
 STRESS PERIOD=  1 TIMESTEP=768 LAYER=  2 ZONE=  2 ACTIVE CELLS= 1225 NUMBER OF EQUATIONS=    1225
 UBUDSV SAVING "      ZETASRF  1" ON UNIT 55 AT TIME STEP768, STRESS PERIOD    1

 HEAD WILL BE SAVED ON UNIT   51 AT END OF TIME STEP  768, STRESS PERIOD    1
 
 SOLVING FOR HEAD 
                                                   Max.-Head-Change                         Max.-Flux-Residual
  Residual-Control   Outer-Iter.   Inner-Iter.     Column Row Layer    Maximum-Head-Change  Column Row Layer    Maximum-Flux-Residual          L2-NORM 
          0                 1           1            34   48     1       0.8252775764E-03      35   14    1         0.4856173560E+00      0.3693908304E+01
          0                 2           1            45   32     1       0.5914786678E-04      38   47    1         0.1642371452E-01      0.1035300180E+00
          0                 3           1            43   31     2       0.2642978853E-04      34   47    1         0.2782364692E-02      0.2647042655E-01
          0                 4           1            44   33     1       0.1435243995E-04      44   33    1         0.1360423954E-02      0.1432492710E-01
          0                 5           1            42   32     2       0.1441286782E-04      46   31    1         0.8443311097E-03      0.1113842456E-01
          0                 6           1            44   33     1       0.9807510063E-05      44   33    1         0.7562944075E-03      0.9754243899E-02

    ------------------------------------------------
       NWT REQUIRED            6 OUTER ITERATIONS 
       AND A TOTAL OF          6 INNER ITERATIONS.
    ------------------------------------------------

 OUTPUT CONTROL FOR STRESS PERIOD    1   TIME STEP  769
    SAVE HEAD FOR ALL LAYERS
 SOLVING FOR ZETA FOR LAYER     1 ZONE     2

     591 UPPER PART EQS.       598 LOWER PART EQS.    BAND WIDTH + 1 =   30
 STRESS PERIOD=  1 TIMESTEP=769 LAYER=  1 ZONE=  2 ACTIVE CELLS= 1189 NUMBER OF EQUATIONS=    1189
 SOLVING FOR ZETA FOR LAYER     2 ZONE     2

     613 UPPER PART EQS.       612 LOWER PART EQS.    BAND WIDTH + 1 =   34
 STRESS PERIOD=  1 TIMESTEP=769 LAYER=  2 ZONE=  2 ACTIVE CELLS= 1225 NUMBER OF EQUATIONS=    1225
 UBUDSV SAVING "      ZETASRF  1" ON UNIT 55 AT TIME STEP769, STRESS PERIOD    1

 HEAD WILL BE SAVED ON UNIT   51 AT END OF TIME STEP  769, STRESS PERIOD    1
 
 SOLVING FOR HEAD 
                                                   Max.-Head-Change                         Max.-Flux-Residual
  Residual-Control   Outer-Iter.   Inner-Iter.     Column Row Layer    Maximum-Head-Change  Column Row Layer    Maximum-Flux-Residual          L2-NORM 
          0                 1           1            27   14     1      -0.7550834421E-03      27   49    1         0.5012909428E+00      0.3042366491E+01
          0                 2           1            25   48     1      -0.3203811341E-04      24   49    1        -0.1353758570E-01      0.7139573107E-01
          0                 3           1            27   46     1      -0.1195210490E-04      27   46    1        -0.1491400827E-02      0.1334696031E-01
          0                 4           1            41   34     1       0.4750318519E-05      46   31    1         0.4480571909E-03      0.5768619817E-02

    ------------------------------------------------
       NWT REQUIRED            4 OUTER ITERATIONS 
       AND A TOTAL OF          4 INNER ITERATIONS.
    ------------------------------------------------

 OUTPUT CONTROL FOR STRESS PERIOD    1   TIME STEP  770
    SAVE HEAD FOR ALL LAYERS
 SOLVING FOR ZETA FOR LAYER     1 ZONE     2

     600 UPPER PART EQS.       602 LOWER PART EQS.    BAND WIDTH + 1 =   26
 STRESS PERIOD=  1 TIMESTEP=770 LAYER=  1 ZONE=  2 ACTIVE CELLS= 1202 NUMBER OF EQUATIONS=    1202
 SOLVING FOR ZETA FOR LAYER     2 ZONE     2

     613 UPPER PART EQS.       612 LOWER PART EQS.    BAND WIDTH + 1 =   34
 STRESS PERIOD=  1 TIMESTEP=770 LAYER=  2 ZONE=  2 ACTIVE CELLS= 1225 NUMBER OF EQUATIONS=    1225
 UBUDSV SAVING "      ZETASRF  1" ON UNIT 55 AT TIME STEP770, STRESS PERIOD    1

 HEAD WILL BE SAVED ON UNIT   51 AT END OF TIME STEP  770, STRESS PERIOD    1
 
 SOLVING FOR HEAD 
                                                   Max.-Head-Change                         Max.-Flux-Residual
  Residual-Control   Outer-Iter.   Inner-Iter.     Column Row Layer    Maximum-Head-Change  Column Row Layer    Maximum-Flux-Residual          L2-NORM 
          0                 1           1            34   49     1       0.7982972287E-03      35   14    1        -0.4927944693E+00      0.3849586210E+01
          0                 2           1            32   49     1      -0.3669697568E-04      31   14    1         0.1933909948E-01      0.8309965946E-01
          0                 3           1            35   46     1      -0.1466031655E-04      34   47    1        -0.1641813214E-02      0.1307713103E-01
          0                 4           1            38   43     1      -0.6449948553E-05      39   46    1        -0.5338065660E-03      0.5805388769E-02

    ------------------------------------------------
       NWT REQUIRED            4 OUTER ITERATIONS 
       AND A TOTAL OF          4 INNER ITERATIONS.
    ------------------------------------------------

 OUTPUT CONTROL FOR STRESS PERIOD    1   TIME STEP  771
    SAVE HEAD FOR ALL LAYERS
 SOLVING FOR ZETA FOR LAYER     1 ZONE     2

     600 UPPER PART EQS.       597 LOWER PART EQS.    BAND WIDTH + 1 =   28
 STRESS PERIOD=  1 TIMESTEP=771 LAYER=  1 ZONE=  2 ACTIVE CELLS= 1197 NUMBER OF EQUATIONS=    1197
 SOLVING FOR ZETA FOR LAYER     2 ZONE     2

     613 UPPER PART EQS.       612 LOWER PART EQS.    BAND WIDTH + 1 =   34
 STRESS PERIOD=  1 TIMESTEP=771 LAYER=  2 ZONE=  2 ACTIVE CELLS= 1225 NUMBER OF EQUATIONS=    1225
 UBUDSV SAVING "      ZETASRF  1" ON UNIT 55 AT TIME STEP771, STRESS PERIOD    1

 HEAD WILL BE SAVED ON UNIT   51 AT END OF TIME STEP  771, STRESS PERIOD    1
 
 SOLVING FOR HEAD 
                                                   Max.-Head-Change                         Max.-Flux-Residual
  Residual-Control   Outer-Iter.   Inner-Iter.     Column Row Layer    Maximum-Head-Change  Column Row Layer    Maximum-Flux-Residual          L2-NORM 
          0                 1           1            34   14     1       0.7571134205E-03      35   14    1         0.4839818670E+00      0.3461325872E+01
          0                 2           1            31   16     1       0.4402613365E-04      38   47    1         0.1429425641E-01      0.7786398003E-01
          0                 3           1            34   45     1       0.2219448900E-04      35   46    1         0.1962509764E-02      0.1712897475E-01
          0                 4           1            33   43     2       0.8476001648E-05      31   16    1         0.6822126020E-03      0.7643922776E-02

    ------------------------------------------------
       NWT REQUIRED            4 OUTER ITERATIONS 
       AND A TOTAL OF          4 INNER ITERATIONS.
    ------------------------------------------------

 OUTPUT CONTROL FOR STRESS PERIOD    1   TIME STEP  772
    SAVE HEAD FOR ALL LAYERS
 SOLVING FOR ZETA FOR LAYER     1 ZONE     2

     587 UPPER PART EQS.       594 LOWER PART EQS.    BAND WIDTH + 1 =   30
 STRESS PERIOD=  1 TIMESTEP=772 LAYER=  1 ZONE=  2 ACTIVE CELLS= 1181 NUMBER OF EQUATIONS=    1181
 SOLVING FOR ZETA FOR LAYER     2 ZONE     2

     613 UPPER PART EQS.       612 LOWER PART EQS.    BAND WIDTH + 1 =   34
 STRESS PERIOD=  1 TIMESTEP=772 LAYER=  2 ZONE=  2 ACTIVE CELLS= 1225 NUMBER OF EQUATIONS=    1225
 UBUDSV SAVING "      ZETASRF  1" ON UNIT 55 AT TIME STEP772, STRESS PERIOD    1

 HEAD WILL BE SAVED ON UNIT   51 AT END OF TIME STEP  772, STRESS PERIOD    1
 
 SOLVING FOR HEAD 
                                                   Max.-Head-Change                         Max.-Flux-Residual
  Residual-Control   Outer-Iter.   Inner-Iter.     Column Row Layer    Maximum-Head-Change  Column Row Layer    Maximum-Flux-Residual          L2-NORM 
          0                 1           1            48   31     1       0.7289108893E-03      27   14    1        -0.4931075647E+00      0.3120479910E+01
          0                 2           1            44   33     1       0.6037643429E-04      45   32    1         0.1459779764E-01      0.8415434627E-01
          0                 3           1            42   32     2       0.3626577581E-04      46   31    1         0.2722571173E-02      0.2473971736E-01
          0                 4           1            43   32     1       0.1702977955E-04      44   33    1         0.1438878514E-02      0.1546952645E-01
          0                 5           1            41   31     2       0.1846897058E-04      47   30    1         0.1078304438E-02      0.1271592665E-01
          0                 6           1            38   32     2       0.1121400021E-04      44   33    1         0.8891787972E-03      0.1116539657E-01
          0                 7           1            41   31     2       0.1305600194E-04      47   30    1         0.7147513974E-03      0.9910840412E-02
          0                 8           1            38   32     2       0.8764597415E-05      44   33    1         0.6606309658E-03      0.8980168161E-02

    ------------------------------------------------
       NWT REQUIRED            8 OUTER ITERATIONS 
       AND A TOTAL OF          8 INNER ITERATIONS.
    ------------------------------------------------

 OUTPUT CONTROL FOR STRESS PERIOD    1   TIME STEP  773
    SAVE HEAD FOR ALL LAYERS
 SOLVING FOR ZETA FOR LAYER     1 ZONE     2

     598 UPPER PART EQS.       597 LOWER PART EQS.    BAND WIDTH + 1 =   28
 STRESS PERIOD=  1 TIMESTEP=773 LAYER=  1 ZONE=  2 ACTIVE CELLS= 1195 NUMBER OF EQUATIONS=    1195
 SOLVING FOR ZETA FOR LAYER     2 ZONE     2

     613 UPPER PART EQS.       612 LOWER PART EQS.    BAND WIDTH + 1 =   34
 STRESS PERIOD=  1 TIMESTEP=773 LAYER=  2 ZONE=  2 ACTIVE CELLS= 1225 NUMBER OF EQUATIONS=    1225
 UBUDSV SAVING "      ZETASRF  1" ON UNIT 55 AT TIME STEP773, STRESS PERIOD    1

 HEAD WILL BE SAVED ON UNIT   51 AT END OF TIME STEP  773, STRESS PERIOD    1
 
 SOLVING FOR HEAD 
                                                   Max.-Head-Change                         Max.-Flux-Residual
  Residual-Control   Outer-Iter.   Inner-Iter.     Column Row Layer    Maximum-Head-Change  Column Row Layer    Maximum-Flux-Residual          L2-NORM 
          0                 1           1            34   48     1      -0.8250463761E-03      35   14    1        -0.4910726605E+00      0.3867817460E+01
          0                 2           1            44   33     1      -0.7216887318E-04      31   14    1         0.1908714947E-01      0.1156366195E+00
          0                 3           1            43   31     2      -0.3773841582E-04      47   30    1        -0.3169333843E-02      0.2947982218E-01
          0                 4           1            44   33     1      -0.1953710369E-04      44   33    1        -0.1621706306E-02      0.1732606078E-01
          0                 5           1            42   32     2      -0.1869880460E-04      47   34    1        -0.1225075762E-02      0.1368000939E-01
          0                 6           1            44   33     1      -0.1264510014E-04      44   33    1        -0.9402852192E-03      0.1183620502E-01
          0                 7           1            42   32     2      -0.1349739555E-04      47   34    1        -0.7798894742E-03      0.1035378768E-01
          0                 8           1            38   32     2      -0.9257002281E-05      44   33    1        -0.6914414010E-03      0.9337754248E-02

    ------------------------------------------------
       NWT REQUIRED            8 OUTER ITERATIONS 
       AND A TOTAL OF          8 INNER ITERATIONS.
    ------------------------------------------------

 OUTPUT CONTROL FOR STRESS PERIOD    1   TIME STEP  774
    SAVE HEAD FOR ALL LAYERS
 SOLVING FOR ZETA FOR LAYER     1 ZONE     2

     595 UPPER PART EQS.       584 LOWER PART EQS.    BAND WIDTH + 1 =   32
 STRESS PERIOD=  1 TIMESTEP=774 LAYER=  1 ZONE=  2 ACTIVE CELLS= 1179 NUMBER OF EQUATIONS=    1179
 SOLVING FOR ZETA FOR LAYER     2 ZONE     2

     613 UPPER PART EQS.       612 LOWER PART EQS.    BAND WIDTH + 1 =   34
 STRESS PERIOD=  1 TIMESTEP=774 LAYER=  2 ZONE=  2 ACTIVE CELLS= 1225 NUMBER OF EQUATIONS=    1225
 UBUDSV SAVING "      ZETASRF  1" ON UNIT 55 AT TIME STEP774, STRESS PERIOD    1

 HEAD WILL BE SAVED ON UNIT   51 AT END OF TIME STEP  774, STRESS PERIOD    1
 
 SOLVING FOR HEAD 
                                                   Max.-Head-Change                         Max.-Flux-Residual
  Residual-Control   Outer-Iter.   Inner-Iter.     Column Row Layer    Maximum-Head-Change  Column Row Layer    Maximum-Flux-Residual          L2-NORM 
          0                 1           1            34   48     1       0.8213195289E-03      35   14    1         0.4825102732E+00      0.3849638187E+01
          0                 2           1            31   16     1       0.6003934075E-04      38   47    1         0.1633097867E-01      0.1078046602E+00
          0                 3           1            35   18     1       0.2653189516E-04      46   31    1         0.2772368181E-02      0.2806320547E-01
          0                 4           1            44   33     1       0.1432042570E-04      44   33    1         0.1374020179E-02      0.1522065377E-01
          0                 5           1            42   32     2       0.1443456151E-04      46   31    1         0.8629196401E-03      0.1193988756E-01
          0                 6           1            38   34     2       0.1031945232E-04      44   33    1         0.7787884894E-03      0.1053093327E-01
          0                 7           1            40   33     1       0.1128402345E-04      46   31    1         0.5876990501E-03      0.9326522295E-02
          0                 8           1            38   32     2       0.8213394776E-05      44   33    1         0.6088325403E-03      0.8478681521E-02

    ------------------------------------------------
       NWT REQUIRED            8 OUTER ITERATIONS 
       AND A TOTAL OF          8 INNER ITERATIONS.
    ------------------------------------------------

 OUTPUT CONTROL FOR STRESS PERIOD    1   TIME STEP  775
    SAVE HEAD FOR ALL LAYERS
 SOLVING FOR ZETA FOR LAYER     1 ZONE     2

     596 UPPER PART EQS.       598 LOWER PART EQS.    BAND WIDTH + 1 =   29
 STRESS PERIOD=  1 TIMESTEP=775 LAYER=  1 ZONE=  2 ACTIVE CELLS= 1194 NUMBER OF EQUATIONS=    1194
 SOLVING FOR ZETA FOR LAYER     2 ZONE     2

     613 UPPER PART EQS.       612 LOWER PART EQS.    BAND WIDTH + 1 =   34
 STRESS PERIOD=  1 TIMESTEP=775 LAYER=  2 ZONE=  2 ACTIVE CELLS= 1225 NUMBER OF EQUATIONS=    1225
 UBUDSV SAVING "      ZETASRF  1" ON UNIT 55 AT TIME STEP775, STRESS PERIOD    1

 HEAD WILL BE SAVED ON UNIT   51 AT END OF TIME STEP  775, STRESS PERIOD    1
 
 SOLVING FOR HEAD 
                                                   Max.-Head-Change                         Max.-Flux-Residual
  Residual-Control   Outer-Iter.   Inner-Iter.     Column Row Layer    Maximum-Head-Change  Column Row Layer    Maximum-Flux-Residual          L2-NORM 
          0                 1           1            27   14     1      -0.7469453352E-03      27   48    1        -0.4916125215E+00      0.3359674342E+01
          0                 2           1            45   32     1      -0.4077432478E-04      24   49    1        -0.1328684678E-01      0.8504556216E-01
          0                 3           1            30   44     2      -0.1598661508E-04      46   31    1        -0.1865549589E-02      0.1679152210E-01
          0                 4           1            31   17     2      -0.5966639363E-05      44   33    1        -0.7268112625E-03      0.6329540482E-02

    ------------------------------------------------
       NWT REQUIRED            4 OUTER ITERATIONS 
       AND A TOTAL OF          4 INNER ITERATIONS.
    ------------------------------------------------

 OUTPUT CONTROL FOR STRESS PERIOD    1   TIME STEP  776
    SAVE HEAD FOR ALL LAYERS
 SOLVING FOR ZETA FOR LAYER     1 ZONE     2

     604 UPPER PART EQS.       591 LOWER PART EQS.    BAND WIDTH + 1 =   31
 STRESS PERIOD=  1 TIMESTEP=776 LAYER=  1 ZONE=  2 ACTIVE CELLS= 1195 NUMBER OF EQUATIONS=    1195
 SOLVING FOR ZETA FOR LAYER     2 ZONE     2

     613 UPPER PART EQS.       612 LOWER PART EQS.    BAND WIDTH + 1 =   34
 STRESS PERIOD=  1 TIMESTEP=776 LAYER=  2 ZONE=  2 ACTIVE CELLS= 1225 NUMBER OF EQUATIONS=    1225
 UBUDSV SAVING "      ZETASRF  1" ON UNIT 55 AT TIME STEP776, STRESS PERIOD    1

 HEAD WILL BE SAVED ON UNIT   51 AT END OF TIME STEP  776, STRESS PERIOD    1
 
 SOLVING FOR HEAD 
                                                   Max.-Head-Change                         Max.-Flux-Residual
  Residual-Control   Outer-Iter.   Inner-Iter.     Column Row Layer    Maximum-Head-Change  Column Row Layer    Maximum-Flux-Residual          L2-NORM 
          0                 1           1            48   31     1       0.7514274223E-03      35   49    1         0.4953438975E+00      0.3694261866E+01
          0                 2           1            45   32     1       0.4661583280E-04      45   32    1         0.1444849662E-01      0.8758829980E-01
          0                 3           1            43   31     2       0.1849773804E-04      47   30    1         0.2000881225E-02      0.1534194286E-01
          0                 4           1            20   32     2       0.8758592981E-05      44   33    1         0.7823982384E-03      0.7520418222E-02

    ------------------------------------------------
       NWT REQUIRED            4 OUTER ITERATIONS 
       AND A TOTAL OF          4 INNER ITERATIONS.
    ------------------------------------------------

 OUTPUT CONTROL FOR STRESS PERIOD    1   TIME STEP  777
    SAVE HEAD FOR ALL LAYERS
 SOLVING FOR ZETA FOR LAYER     1 ZONE     2

     601 UPPER PART EQS.       597 LOWER PART EQS.    BAND WIDTH + 1 =   26
 STRESS PERIOD=  1 TIMESTEP=777 LAYER=  1 ZONE=  2 ACTIVE CELLS= 1198 NUMBER OF EQUATIONS=    1198
 SOLVING FOR ZETA FOR LAYER     2 ZONE     2

     613 UPPER PART EQS.       612 LOWER PART EQS.    BAND WIDTH + 1 =   34
 STRESS PERIOD=  1 TIMESTEP=777 LAYER=  2 ZONE=  2 ACTIVE CELLS= 1225 NUMBER OF EQUATIONS=    1225
 UBUDSV SAVING "      ZETASRF  1" ON UNIT 55 AT TIME STEP777, STRESS PERIOD    1

 HEAD WILL BE SAVED ON UNIT   51 AT END OF TIME STEP  777, STRESS PERIOD    1
 
 SOLVING FOR HEAD 
                                                   Max.-Head-Change                         Max.-Flux-Residual
  Residual-Control   Outer-Iter.   Inner-Iter.     Column Row Layer    Maximum-Head-Change  Column Row Layer    Maximum-Flux-Residual          L2-NORM 
          0                 1           1            48   32     1      -0.7831308012E-03      14   27    1         0.4809352035E+00      0.3750424505E+01
          0                 2           1            44   33     1      -0.6099732738E-04      45   32    1        -0.1561379476E-01      0.9553897217E-01
          0                 3           1            43   31     2      -0.3030924139E-04      47   30    1        -0.2590810827E-02      0.2179712572E-01
          0                 4           1            44   33     1      -0.1053354184E-04      44   33    1        -0.1132021946E-02      0.1067144112E-01
          0                 5           1            16   33     1      -0.8646072314E-05      46   31    1        -0.7668529469E-03      0.6576238841E-02

    ------------------------------------------------
       NWT REQUIRED            5 OUTER ITERATIONS 
       AND A TOTAL OF          5 INNER ITERATIONS.
    ------------------------------------------------

 OUTPUT CONTROL FOR STRESS PERIOD    1   TIME STEP  778
    SAVE HEAD FOR ALL LAYERS
 SOLVING FOR ZETA FOR LAYER     1 ZONE     2

     590 UPPER PART EQS.       594 LOWER PART EQS.    BAND WIDTH + 1 =   29
 STRESS PERIOD=  1 TIMESTEP=778 LAYER=  1 ZONE=  2 ACTIVE CELLS= 1184 NUMBER OF EQUATIONS=    1184
 SOLVING FOR ZETA FOR LAYER     2 ZONE     2

     613 UPPER PART EQS.       612 LOWER PART EQS.    BAND WIDTH + 1 =   34
 STRESS PERIOD=  1 TIMESTEP=778 LAYER=  2 ZONE=  2 ACTIVE CELLS= 1225 NUMBER OF EQUATIONS=    1225
 UBUDSV SAVING "      ZETASRF  1" ON UNIT 55 AT TIME STEP778, STRESS PERIOD    1

 HEAD WILL BE SAVED ON UNIT   51 AT END OF TIME STEP  778, STRESS PERIOD    1
 
 SOLVING FOR HEAD 
                                                   Max.-Head-Change                         Max.-Flux-Residual
  Residual-Control   Outer-Iter.   Inner-Iter.     Column Row Layer    Maximum-Head-Change  Column Row Layer    Maximum-Flux-Residual          L2-NORM 
          0                 1           1            48   32     1       0.8026553543E-03      27   48    1        -0.4902519673E+00      0.3473132347E+01
          0                 2           1            44   31     1       0.8074453567E-04      45   32    1         0.1653277104E-01      0.1057737275E+00
          0                 3           1            42   32     2       0.4642184464E-04      47   30    1         0.3663614880E-02      0.3063680193E-01
          0                 4           1            44   33     1       0.1848385876E-04      44   33    1         0.1780543342E-02      0.1697692965E-01
          0                 5           1            42   32     2       0.1779720600E-04      47   30    1         0.1310411508E-02      0.1212800745E-01
          0                 6           1            44   33     1       0.9930605749E-05      44   33    1         0.9180160375E-03      0.9589553715E-02

    ------------------------------------------------
       NWT REQUIRED            6 OUTER ITERATIONS 
       AND A TOTAL OF          6 INNER ITERATIONS.
    ------------------------------------------------

 OUTPUT CONTROL FOR STRESS PERIOD    1   TIME STEP  779
    SAVE HEAD FOR ALL LAYERS
 SOLVING FOR ZETA FOR LAYER     1 ZONE     2

     597 UPPER PART EQS.       600 LOWER PART EQS.    BAND WIDTH + 1 =   26
 STRESS PERIOD=  1 TIMESTEP=779 LAYER=  1 ZONE=  2 ACTIVE CELLS= 1197 NUMBER OF EQUATIONS=    1197
 SOLVING FOR ZETA FOR LAYER     2 ZONE     2

     613 UPPER PART EQS.       612 LOWER PART EQS.    BAND WIDTH + 1 =   34
 STRESS PERIOD=  1 TIMESTEP=779 LAYER=  2 ZONE=  2 ACTIVE CELLS= 1225 NUMBER OF EQUATIONS=    1225
 UBUDSV SAVING "      ZETASRF  1" ON UNIT 55 AT TIME STEP779, STRESS PERIOD    1

 HEAD WILL BE SAVED ON UNIT   51 AT END OF TIME STEP  779, STRESS PERIOD    1
 
 SOLVING FOR HEAD 
                                                   Max.-Head-Change                         Max.-Flux-Residual
  Residual-Control   Outer-Iter.   Inner-Iter.     Column Row Layer    Maximum-Head-Change  Column Row Layer    Maximum-Flux-Residual          L2-NORM 
          0                 1           1            48   31     1      -0.7643626595E-03      14   35    1        -0.4880038515E+00      0.3853657421E+01
          0                 2           1            44   33     1      -0.7049958949E-04      10   31    1         0.1564092435E-01      0.9605200362E-01
          0                 3           1            43   31     2      -0.3898103110E-04      47   30    1        -0.3047533868E-02      0.2562493347E-01
          0                 4           1            44   33     1      -0.1585045059E-04      44   33    1        -0.1509028772E-02      0.1366607240E-01
          0                 5           1            42   32     2      -0.1332084827E-04      47   30    1        -0.1066289822E-02      0.9169839912E-02
          0                 6           1            44   33     1      -0.8319199039E-05      44   33    1        -0.7463968278E-03      0.6841311558E-02

    ------------------------------------------------
       NWT REQUIRED            6 OUTER ITERATIONS 
       AND A TOTAL OF          6 INNER ITERATIONS.
    ------------------------------------------------

 OUTPUT CONTROL FOR STRESS PERIOD    1   TIME STEP  780
    SAVE HEAD FOR ALL LAYERS
 SOLVING FOR ZETA FOR LAYER     1 ZONE     2

     594 UPPER PART EQS.       597 LOWER PART EQS.    BAND WIDTH + 1 =   25
 STRESS PERIOD=  1 TIMESTEP=780 LAYER=  1 ZONE=  2 ACTIVE CELLS= 1191 NUMBER OF EQUATIONS=    1191
 SOLVING FOR ZETA FOR LAYER     2 ZONE     2

     613 UPPER PART EQS.       612 LOWER PART EQS.    BAND WIDTH + 1 =   34
 STRESS PERIOD=  1 TIMESTEP=780 LAYER=  2 ZONE=  2 ACTIVE CELLS= 1225 NUMBER OF EQUATIONS=    1225
 UBUDSV SAVING "      ZETASRF  1" ON UNIT 55 AT TIME STEP780, STRESS PERIOD    1

 HEAD WILL BE SAVED ON UNIT   51 AT END OF TIME STEP  780, STRESS PERIOD    1
 
 SOLVING FOR HEAD 
                                                   Max.-Head-Change                         Max.-Flux-Residual
  Residual-Control   Outer-Iter.   Inner-Iter.     Column Row Layer    Maximum-Head-Change  Column Row Layer    Maximum-Flux-Residual          L2-NORM 
          0                 1           1            48   31     1       0.7337170470E-03      14   35    1         0.4795253610E+00      0.3398788251E+01
          0                 2           1            45   32     1       0.5775447922E-04      45   32    1         0.1410849560E-01      0.8792920048E-01
          0                 3           1            43   31     2       0.2729326445E-04      46   31    1         0.2605894309E-02      0.2292905981E-01
          0                 4           1            44   33     1       0.1451279038E-04      44   33    1         0.1330950611E-02      0.1348734086E-01
          0                 5           1            42   32     2       0.1414138895E-04      46   31    1         0.8545857475E-03      0.1096230668E-01
          0                 6           1            38   32     2       0.9922123645E-05      44   33    1         0.7605088123E-03      0.9727112537E-02

    ------------------------------------------------
       NWT REQUIRED            6 OUTER ITERATIONS 
       AND A TOTAL OF          6 INNER ITERATIONS.
    ------------------------------------------------

 OUTPUT CONTROL FOR STRESS PERIOD    1   TIME STEP  781
    SAVE HEAD FOR ALL LAYERS
 SOLVING FOR ZETA FOR LAYER     1 ZONE     2

     583 UPPER PART EQS.       600 LOWER PART EQS.    BAND WIDTH + 1 =   37
 STRESS PERIOD=  1 TIMESTEP=781 LAYER=  1 ZONE=  2 ACTIVE CELLS= 1183 NUMBER OF EQUATIONS=    1183
 SOLVING FOR ZETA FOR LAYER     2 ZONE     2

     613 UPPER PART EQS.       612 LOWER PART EQS.    BAND WIDTH + 1 =   34
 STRESS PERIOD=  1 TIMESTEP=781 LAYER=  2 ZONE=  2 ACTIVE CELLS= 1225 NUMBER OF EQUATIONS=    1225
 UBUDSV SAVING "      ZETASRF  1" ON UNIT 55 AT TIME STEP781, STRESS PERIOD    1

 HEAD WILL BE SAVED ON UNIT   51 AT END OF TIME STEP  781, STRESS PERIOD    1
 
 SOLVING FOR HEAD 
                                                   Max.-Head-Change                         Max.-Flux-Residual
  Residual-Control   Outer-Iter.   Inner-Iter.     Column Row Layer    Maximum-Head-Change  Column Row Layer    Maximum-Flux-Residual          L2-NORM 
          0                 1           1            33   48     1      -0.7260139418E-03      27   48    1        -0.4889850397E+00      0.3749926181E+01
          0                 2           1            31   46     1      -0.4971030966E-04      45   32    1        -0.1308114555E-01      0.9283391365E-01
          0                 3           1            30   44     2      -0.2145641018E-04      46   31    1        -0.1967048498E-02      0.2014287955E-01
          0                 4           1            31   18     1      -0.8230319153E-05      44   33    1        -0.8110060791E-03      0.8242512009E-02

    ------------------------------------------------
       NWT REQUIRED            4 OUTER ITERATIONS 
       AND A TOTAL OF          4 INNER ITERATIONS.
    ------------------------------------------------

 OUTPUT CONTROL FOR STRESS PERIOD    1   TIME STEP  782
    SAVE HEAD FOR ALL LAYERS
 SOLVING FOR ZETA FOR LAYER     1 ZONE     2

     600 UPPER PART EQS.       593 LOWER PART EQS.    BAND WIDTH + 1 =   28
 STRESS PERIOD=  1 TIMESTEP=782 LAYER=  1 ZONE=  2 ACTIVE CELLS= 1193 NUMBER OF EQUATIONS=    1193
 SOLVING FOR ZETA FOR LAYER     2 ZONE     2

     613 UPPER PART EQS.       612 LOWER PART EQS.    BAND WIDTH + 1 =   34
 STRESS PERIOD=  1 TIMESTEP=782 LAYER=  2 ZONE=  2 ACTIVE CELLS= 1225 NUMBER OF EQUATIONS=    1225
 UBUDSV SAVING "      ZETASRF  1" ON UNIT 55 AT TIME STEP782, STRESS PERIOD    1

 HEAD WILL BE SAVED ON UNIT   51 AT END OF TIME STEP  782, STRESS PERIOD    1
 
 SOLVING FOR HEAD 
                                                   Max.-Head-Change                         Max.-Flux-Residual
  Residual-Control   Outer-Iter.   Inner-Iter.     Column Row Layer    Maximum-Head-Change  Column Row Layer    Maximum-Flux-Residual          L2-NORM 
          0                 1           1            48   31     1       0.7453560896E-03      14   27    1        -0.4871278099E+00      0.3468287255E+01
          0                 2           1            45   32     1       0.4687036407E-04      45   32    1         0.1431074339E-01      0.8709629030E-01
          0                 3           1            43   31     2       0.1779364593E-04      46   31    1         0.2067321047E-02      0.1724638825E-01
          0                 4           1            20   32     2       0.8223760537E-05      44   33    1         0.8360978425E-03      0.8920156780E-02

    ------------------------------------------------
       NWT REQUIRED            4 OUTER ITERATIONS 
       AND A TOTAL OF          4 INNER ITERATIONS.
    ------------------------------------------------

 OUTPUT CONTROL FOR STRESS PERIOD    1   TIME STEP  783
    SAVE HEAD FOR ALL LAYERS
 SOLVING FOR ZETA FOR LAYER     1 ZONE     2

     595 UPPER PART EQS.       593 LOWER PART EQS.    BAND WIDTH + 1 =   26
 STRESS PERIOD=  1 TIMESTEP=783 LAYER=  1 ZONE=  2 ACTIVE CELLS= 1188 NUMBER OF EQUATIONS=    1188
 SOLVING FOR ZETA FOR LAYER     2 ZONE     2

     613 UPPER PART EQS.       612 LOWER PART EQS.    BAND WIDTH + 1 =   34
 STRESS PERIOD=  1 TIMESTEP=783 LAYER=  2 ZONE=  2 ACTIVE CELLS= 1225 NUMBER OF EQUATIONS=    1225
 UBUDSV SAVING "      ZETASRF  1" ON UNIT 55 AT TIME STEP783, STRESS PERIOD    1

 HEAD WILL BE SAVED ON UNIT   51 AT END OF TIME STEP  783, STRESS PERIOD    1
 
 SOLVING FOR HEAD 
                                                   Max.-Head-Change                         Max.-Flux-Residual
  Residual-Control   Outer-Iter.   Inner-Iter.     Column Row Layer    Maximum-Head-Change  Column Row Layer    Maximum-Flux-Residual          L2-NORM 
          0                 1           1            48   32     1      -0.7807964745E-03      14   27    1         0.4784346653E+00      0.4033243718E+01
          0                 2           1            44   33     1      -0.6039252638E-04      45   32    1        -0.1553540578E-01      0.9317359888E-01
          0                 3           1            43   31     2      -0.2844886508E-04      46   31    1        -0.2517188392E-02      0.1923081215E-01
          0                 4           1            43   30     1      -0.1039736794E-04      44   33    1        -0.1059382921E-02      0.9213443794E-02
          0                 5           1            16   33     1      -0.8129327998E-05      46   31    1        -0.6806547691E-03      0.6030547722E-02

    ------------------------------------------------
       NWT REQUIRED            5 OUTER ITERATIONS 
       AND A TOTAL OF          5 INNER ITERATIONS.
    ------------------------------------------------

 OUTPUT CONTROL FOR STRESS PERIOD    1   TIME STEP  784
    SAVE HEAD FOR ALL LAYERS
 SOLVING FOR ZETA FOR LAYER     1 ZONE     2

     598 UPPER PART EQS.       589 LOWER PART EQS.    BAND WIDTH + 1 =   29
 STRESS PERIOD=  1 TIMESTEP=784 LAYER=  1 ZONE=  2 ACTIVE CELLS= 1187 NUMBER OF EQUATIONS=    1187
 SOLVING FOR ZETA FOR LAYER     2 ZONE     2

     613 UPPER PART EQS.       612 LOWER PART EQS.    BAND WIDTH + 1 =   34
 STRESS PERIOD=  1 TIMESTEP=784 LAYER=  2 ZONE=  2 ACTIVE CELLS= 1225 NUMBER OF EQUATIONS=    1225
 UBUDSV SAVING "      ZETASRF  1" ON UNIT 55 AT TIME STEP784, STRESS PERIOD    1

 HEAD WILL BE SAVED ON UNIT   51 AT END OF TIME STEP  784, STRESS PERIOD    1
 
 SOLVING FOR HEAD 
                                                   Max.-Head-Change                         Max.-Flux-Residual
  Residual-Control   Outer-Iter.   Inner-Iter.     Column Row Layer    Maximum-Head-Change  Column Row Layer    Maximum-Flux-Residual          L2-NORM 
          0                 1           1            48   32     1       0.7989569921E-03      27   14    1        -0.4877287755E+00      0.3418156688E+01
          0                 2           1            44   31     1       0.7952201653E-04      31   50    1         0.1654608714E-01      0.1109543389E+00
          0                 3           1            42   32     2       0.4549928703E-04      47   30    1         0.3575960307E-02      0.3069683827E-01
          0                 4           1            44   33     1       0.1766185960E-04      44   33    1         0.1706446820E-02      0.1637629206E-01
          0                 5           1            42   32     2       0.1634425092E-04      47   30    1         0.1244363377E-02      0.1124678526E-01
          0                 6           1            44   33     1       0.9093140914E-05      44   33    1         0.8491587616E-03      0.8534745349E-02

    ------------------------------------------------
       NWT REQUIRED            6 OUTER ITERATIONS 
       AND A TOTAL OF          6 INNER ITERATIONS.
    ------------------------------------------------

 OUTPUT CONTROL FOR STRESS PERIOD    1   TIME STEP  785
    SAVE HEAD FOR ALL LAYERS
 SOLVING FOR ZETA FOR LAYER     1 ZONE     2

     594 UPPER PART EQS.       595 LOWER PART EQS.    BAND WIDTH + 1 =   24
 STRESS PERIOD=  1 TIMESTEP=785 LAYER=  1 ZONE=  2 ACTIVE CELLS= 1189 NUMBER OF EQUATIONS=    1189
 SOLVING FOR ZETA FOR LAYER     2 ZONE     2

     613 UPPER PART EQS.       612 LOWER PART EQS.    BAND WIDTH + 1 =   34
 STRESS PERIOD=  1 TIMESTEP=785 LAYER=  2 ZONE=  2 ACTIVE CELLS= 1225 NUMBER OF EQUATIONS=    1225
 UBUDSV SAVING "      ZETASRF  1" ON UNIT 55 AT TIME STEP785, STRESS PERIOD    1

 HEAD WILL BE SAVED ON UNIT   51 AT END OF TIME STEP  785, STRESS PERIOD    1
 
 SOLVING FOR HEAD 
                                                   Max.-Head-Change                         Max.-Flux-Residual
  Residual-Control   Outer-Iter.   Inner-Iter.     Column Row Layer    Maximum-Head-Change  Column Row Layer    Maximum-Flux-Residual          L2-NORM 
          0                 1           1            48   31     1      -0.7606068703E-03      14   35    1        -0.4856627450E+00      0.3672588739E+01
          0                 2           1            44   33     1      -0.7157713229E-04      45   32    1        -0.1527075776E-01      0.1085653836E+00
          0                 3           1            43   31     2      -0.3896108513E-04      47   30    1        -0.3216093113E-02      0.3095387192E-01
          0                 4           1            44   33     1      -0.1572534971E-04      44   33    1        -0.1611091396E-02      0.1619101512E-01
          0                 5           1            47   30     1      -0.1238895292E-04      47   30    1        -0.1137746419E-02      0.9962881728E-02
          0                 6           1            44   33     1      -0.6861251485E-05      44   33    1        -0.7075645047E-03      0.6420333017E-02

    ------------------------------------------------
       NWT REQUIRED            6 OUTER ITERATIONS 
       AND A TOTAL OF          6 INNER ITERATIONS.
    ------------------------------------------------

 OUTPUT CONTROL FOR STRESS PERIOD    1   TIME STEP  786
    SAVE HEAD FOR ALL LAYERS
 SOLVING FOR ZETA FOR LAYER     1 ZONE     2

     597 UPPER PART EQS.       599 LOWER PART EQS.    BAND WIDTH + 1 =   23
 STRESS PERIOD=  1 TIMESTEP=786 LAYER=  1 ZONE=  2 ACTIVE CELLS= 1196 NUMBER OF EQUATIONS=    1196
 SOLVING FOR ZETA FOR LAYER     2 ZONE     2

     613 UPPER PART EQS.       612 LOWER PART EQS.    BAND WIDTH + 1 =   34
 STRESS PERIOD=  1 TIMESTEP=786 LAYER=  2 ZONE=  2 ACTIVE CELLS= 1225 NUMBER OF EQUATIONS=    1225
 UBUDSV SAVING "      ZETASRF  1" ON UNIT 55 AT TIME STEP786, STRESS PERIOD    1

 HEAD WILL BE SAVED ON UNIT   51 AT END OF TIME STEP  786, STRESS PERIOD    1
 
 SOLVING FOR HEAD 
                                                   Max.-Head-Change                         Max.-Flux-Residual
  Residual-Control   Outer-Iter.   Inner-Iter.     Column Row Layer    Maximum-Head-Change  Column Row Layer    Maximum-Flux-Residual          L2-NORM 
          0                 1           1            48   31     1       0.7307768237E-03      14   35    1         0.4770841502E+00      0.3561976766E+01
          0                 2           1            45   32     1       0.5754203691E-04      45   32    1         0.1411417354E-01      0.8435655792E-01
          0                 3           1            43   31     2       0.3067540600E-04      46   31    1         0.2514083705E-02      0.2130477925E-01
          0                 4           1            44   33     1       0.1318447859E-04      44   33    1         0.1295058165E-02      0.1125529192E-01
          0                 5           1            42   32     2       0.1046171171E-04      47   34    1         0.8464330893E-03      0.7440396481E-02
          0                 6           1            44   33     1       0.6775026267E-05      44   33    1         0.6217024650E-03      0.5469580086E-02

    ------------------------------------------------
       NWT REQUIRED            6 OUTER ITERATIONS 
       AND A TOTAL OF          6 INNER ITERATIONS.
    ------------------------------------------------

 OUTPUT CONTROL FOR STRESS PERIOD    1   TIME STEP  787
    SAVE HEAD FOR ALL LAYERS
 SOLVING FOR ZETA FOR LAYER     1 ZONE     2

     583 UPPER PART EQS.       602 LOWER PART EQS.    BAND WIDTH + 1 =   40
 STRESS PERIOD=  1 TIMESTEP=787 LAYER=  1 ZONE=  2 ACTIVE CELLS= 1185 NUMBER OF EQUATIONS=    1185
 SOLVING FOR ZETA FOR LAYER     2 ZONE     2

     613 UPPER PART EQS.       612 LOWER PART EQS.    BAND WIDTH + 1 =   34
 STRESS PERIOD=  1 TIMESTEP=787 LAYER=  2 ZONE=  2 ACTIVE CELLS= 1225 NUMBER OF EQUATIONS=    1225
 UBUDSV SAVING "      ZETASRF  1" ON UNIT 55 AT TIME STEP787, STRESS PERIOD    1

 HEAD WILL BE SAVED ON UNIT   51 AT END OF TIME STEP  787, STRESS PERIOD    1
 
 SOLVING FOR HEAD 
                                                   Max.-Head-Change                         Max.-Flux-Residual
  Residual-Control   Outer-Iter.   Inner-Iter.     Column Row Layer    Maximum-Head-Change  Column Row Layer    Maximum-Flux-Residual          L2-NORM 
          0                 1           1            48   31     1      -0.7141809703E-03      27   48    1        -0.4864916257E+00      0.3706499974E+01
          0                 2           1            45   32     1      -0.3941927340E-04      31   14    1        -0.1358727479E-01      0.7669855595E-01
          0                 3           1            17   32     1      -0.1342783666E-04      47   30    1        -0.1623950781E-02      0.1175768879E-01
          0                 4           1            44   33     1      -0.5874031018E-05      44   33    1        -0.6622174899E-03      0.4543964248E-02

    ------------------------------------------------
       NWT REQUIRED            4 OUTER ITERATIONS 
       AND A TOTAL OF          4 INNER ITERATIONS.
    ------------------------------------------------

 OUTPUT CONTROL FOR STRESS PERIOD    1   TIME STEP  788
    SAVE HEAD FOR ALL LAYERS
 SOLVING FOR ZETA FOR LAYER     1 ZONE     2

     596 UPPER PART EQS.       596 LOWER PART EQS.    BAND WIDTH + 1 =   23
 STRESS PERIOD=  1 TIMESTEP=788 LAYER=  1 ZONE=  2 ACTIVE CELLS= 1192 NUMBER OF EQUATIONS=    1192
 SOLVING FOR ZETA FOR LAYER     2 ZONE     2

     613 UPPER PART EQS.       612 LOWER PART EQS.    BAND WIDTH + 1 =   34
 STRESS PERIOD=  1 TIMESTEP=788 LAYER=  2 ZONE=  2 ACTIVE CELLS= 1225 NUMBER OF EQUATIONS=    1225
 UBUDSV SAVING "      ZETASRF  1" ON UNIT 55 AT TIME STEP788, STRESS PERIOD    1

 HEAD WILL BE SAVED ON UNIT   51 AT END OF TIME STEP  788, STRESS PERIOD    1
 
 SOLVING FOR HEAD 
                                                   Max.-Head-Change                         Max.-Flux-Residual
  Residual-Control   Outer-Iter.   Inner-Iter.     Column Row Layer    Maximum-Head-Change  Column Row Layer    Maximum-Flux-Residual          L2-NORM 
          0                 1           1            27   14     1       0.7410657862E-03      14   35    1        -0.4848081874E+00      0.3511808906E+01
          0                 2           1            44   33     1       0.4630903888E-04      45   32    1         0.1420652683E-01      0.8678060398E-01
          0                 3           1            43   31     2       0.1851493008E-04      46   31    1         0.2059167303E-02      0.1920249673E-01
          0                 4           1            28   21     1       0.9384445984E-05      44   33    1         0.8952289834E-03      0.1119233944E-01

    ------------------------------------------------
       NWT REQUIRED            4 OUTER ITERATIONS 
       AND A TOTAL OF          4 INNER ITERATIONS.
    ------------------------------------------------

 OUTPUT CONTROL FOR STRESS PERIOD    1   TIME STEP  789
    SAVE HEAD FOR ALL LAYERS
 SOLVING FOR ZETA FOR LAYER     1 ZONE     2

     600 UPPER PART EQS.       604 LOWER PART EQS.    BAND WIDTH + 1 =   28
 STRESS PERIOD=  1 TIMESTEP=789 LAYER=  1 ZONE=  2 ACTIVE CELLS= 1204 NUMBER OF EQUATIONS=    1204
 SOLVING FOR ZETA FOR LAYER     2 ZONE     2

     613 UPPER PART EQS.       612 LOWER PART EQS.    BAND WIDTH + 1 =   34
 STRESS PERIOD=  1 TIMESTEP=789 LAYER=  2 ZONE=  2 ACTIVE CELLS= 1225 NUMBER OF EQUATIONS=    1225
 UBUDSV SAVING "      ZETASRF  1" ON UNIT 55 AT TIME STEP789, STRESS PERIOD    1

 HEAD WILL BE SAVED ON UNIT   51 AT END OF TIME STEP  789, STRESS PERIOD    1
 
 SOLVING FOR HEAD 
                                                   Max.-Head-Change                         Max.-Flux-Residual
  Residual-Control   Outer-Iter.   Inner-Iter.     Column Row Layer    Maximum-Head-Change  Column Row Layer    Maximum-Flux-Residual          L2-NORM 
          0                 1           1            48   32     1      -0.7742631729E-03      14   27    1         0.4760213697E+00      0.3744409576E+01
          0                 2           1            44   33     1      -0.5894007663E-04      45   32    1        -0.1535144243E-01      0.8977706608E-01
          0                 3           1            43   31     2      -0.2538748223E-04      46   31    1        -0.2439145885E-02      0.1801664984E-01
          0                 4           1            43   30     1      -0.1006032398E-04      44   33    1        -0.1017347824E-02      0.8843422905E-02
          0                 5           1            16   33     1      -0.7987153100E-05      46   31    1        -0.6438844382E-03      0.6405642286E-02

    ------------------------------------------------
       NWT REQUIRED            5 OUTER ITERATIONS 
       AND A TOTAL OF          5 INNER ITERATIONS.
    ------------------------------------------------

 OUTPUT CONTROL FOR STRESS PERIOD    1   TIME STEP  790
    SAVE HEAD FOR ALL LAYERS
 SOLVING FOR ZETA FOR LAYER     1 ZONE     2

     598 UPPER PART EQS.       590 LOWER PART EQS.    BAND WIDTH + 1 =   29
 STRESS PERIOD=  1 TIMESTEP=790 LAYER=  1 ZONE=  2 ACTIVE CELLS= 1188 NUMBER OF EQUATIONS=    1188
 SOLVING FOR ZETA FOR LAYER     2 ZONE     2

     613 UPPER PART EQS.       612 LOWER PART EQS.    BAND WIDTH + 1 =   34
 STRESS PERIOD=  1 TIMESTEP=790 LAYER=  2 ZONE=  2 ACTIVE CELLS= 1225 NUMBER OF EQUATIONS=    1225
 UBUDSV SAVING "      ZETASRF  1" ON UNIT 55 AT TIME STEP790, STRESS PERIOD    1

 HEAD WILL BE SAVED ON UNIT   51 AT END OF TIME STEP  790, STRESS PERIOD    1
 
 SOLVING FOR HEAD 
                                                   Max.-Head-Change                         Max.-Flux-Residual
  Residual-Control   Outer-Iter.   Inner-Iter.     Column Row Layer    Maximum-Head-Change  Column Row Layer    Maximum-Flux-Residual          L2-NORM 
          0                 1           1            48   32     1       0.7946340533E-03      35   14    1        -0.4856172820E+00      0.3504441111E+01
          0                 2           1            44   31     1       0.7857279616E-04      45   32    1         0.1634356872E-01      0.1029226253E+00
          0                 3           1            42   32     2       0.4513556348E-04      47   30    1         0.3472153302E-02      0.2837876317E-01
          0                 4           1            44   33     1       0.1816583679E-04      44   33    1         0.1666581776E-02      0.1688162625E-01
          0                 5           1            42   32     2       0.1944494306E-04      47   30    1         0.1233362194E-02      0.1318201291E-01
          0                 6           1            44   33     1       0.1060685402E-04      44   33    1         0.9501134354E-03      0.1129739498E-01
          0                 7           1            41   31     2       0.1365166387E-04      47   30    1         0.7151480527E-03      0.9821033680E-02
          0                 8           1            38   32     2       0.7636675593E-05      44   33    1         0.6740566456E-03      0.8943644763E-02

    ------------------------------------------------
       NWT REQUIRED            8 OUTER ITERATIONS 
       AND A TOTAL OF          8 INNER ITERATIONS.
    ------------------------------------------------

 OUTPUT CONTROL FOR STRESS PERIOD    1   TIME STEP  791
    SAVE HEAD FOR ALL LAYERS
 SOLVING FOR ZETA FOR LAYER     1 ZONE     2

     602 UPPER PART EQS.       600 LOWER PART EQS.    BAND WIDTH + 1 =   24
 STRESS PERIOD=  1 TIMESTEP=791 LAYER=  1 ZONE=  2 ACTIVE CELLS= 1202 NUMBER OF EQUATIONS=    1202
 SOLVING FOR ZETA FOR LAYER     2 ZONE     2

     613 UPPER PART EQS.       612 LOWER PART EQS.    BAND WIDTH + 1 =   34
 STRESS PERIOD=  1 TIMESTEP=791 LAYER=  2 ZONE=  2 ACTIVE CELLS= 1225 NUMBER OF EQUATIONS=    1225
 UBUDSV SAVING "      ZETASRF  1" ON UNIT 55 AT TIME STEP791, STRESS PERIOD    1

 HEAD WILL BE SAVED ON UNIT   51 AT END OF TIME STEP  791, STRESS PERIOD    1
 
 SOLVING FOR HEAD 
                                                   Max.-Head-Change                         Max.-Flux-Residual
  Residual-Control   Outer-Iter.   Inner-Iter.     Column Row Layer    Maximum-Head-Change  Column Row Layer    Maximum-Flux-Residual          L2-NORM 
          0                 1           1            48   31     1      -0.7561100917E-03      14   35    1        -0.4834583678E+00      0.3601912340E+01
          0                 2           1            44   33     1      -0.6947100969E-04      45   32    1        -0.1521109248E-01      0.9847491059E-01
          0                 3           1            43   31     2      -0.4114151231E-04      47   30    1        -0.3009098680E-02      0.2590364478E-01
          0                 4           1            44   33     1      -0.1538457661E-04      44   33    1        -0.1492442142E-02      0.1393959599E-01
          0                 5           1            42   32     2      -0.1336138900E-04      47   30    1        -0.1067603114E-02      0.9079582083E-02
          0                 6           1            44   33     1      -0.7981309477E-05      44   33    1        -0.7404305877E-03      0.6508790160E-02

    ------------------------------------------------
       NWT REQUIRED            6 OUTER ITERATIONS 
       AND A TOTAL OF          6 INNER ITERATIONS.
    ------------------------------------------------

 OUTPUT CONTROL FOR STRESS PERIOD    1   TIME STEP  792
    SAVE HEAD FOR ALL LAYERS
 SOLVING FOR ZETA FOR LAYER     1 ZONE     2

     608 UPPER PART EQS.       596 LOWER PART EQS.    BAND WIDTH + 1 =   31
 STRESS PERIOD=  1 TIMESTEP=792 LAYER=  1 ZONE=  2 ACTIVE CELLS= 1204 NUMBER OF EQUATIONS=    1204
 SOLVING FOR ZETA FOR LAYER     2 ZONE     2

     613 UPPER PART EQS.       612 LOWER PART EQS.    BAND WIDTH + 1 =   34
 STRESS PERIOD=  1 TIMESTEP=792 LAYER=  2 ZONE=  2 ACTIVE CELLS= 1225 NUMBER OF EQUATIONS=    1225
 UBUDSV SAVING "      ZETASRF  1" ON UNIT 55 AT TIME STEP792, STRESS PERIOD    1

 HEAD WILL BE SAVED ON UNIT   51 AT END OF TIME STEP  792, STRESS PERIOD    1
 
 SOLVING FOR HEAD 
                                                   Max.-Head-Change                         Max.-Flux-Residual
  Residual-Control   Outer-Iter.   Inner-Iter.     Column Row Layer    Maximum-Head-Change  Column Row Layer    Maximum-Flux-Residual          L2-NORM 
          0                 1           1            48   31     1       0.7266278561E-03      14   35    1         0.4746791083E+00      0.3728074020E+01
          0                 2           1            45   32     1       0.5534070744E-04      31   50    1         0.1421954366E-01      0.8843904570E-01
          0                 3           1            43   31     2       0.2968795295E-04      46   31    1         0.2361096023E-02      0.2142298546E-01
          0                 4           1            44   33     1       0.1117055635E-04      44   33    1         0.1191972794E-02      0.1086932868E-01
          0                 5           1            46   31     1       0.8796743954E-05      46   31    1         0.7329727621E-03      0.6659587167E-02

    ------------------------------------------------
       NWT REQUIRED            5 OUTER ITERATIONS 
       AND A TOTAL OF          5 INNER ITERATIONS.
    ------------------------------------------------

 OUTPUT CONTROL FOR STRESS PERIOD    1   TIME STEP  793
    SAVE HEAD FOR ALL LAYERS
 SOLVING FOR ZETA FOR LAYER     1 ZONE     2

     594 UPPER PART EQS.       594 LOWER PART EQS.    BAND WIDTH + 1 =   29
 STRESS PERIOD=  1 TIMESTEP=793 LAYER=  1 ZONE=  2 ACTIVE CELLS= 1188 NUMBER OF EQUATIONS=    1188
 SOLVING FOR ZETA FOR LAYER     2 ZONE     2

     613 UPPER PART EQS.       612 LOWER PART EQS.    BAND WIDTH + 1 =   34
 STRESS PERIOD=  1 TIMESTEP=793 LAYER=  2 ZONE=  2 ACTIVE CELLS= 1225 NUMBER OF EQUATIONS=    1225
 UBUDSV SAVING "      ZETASRF  1" ON UNIT 55 AT TIME STEP793, STRESS PERIOD    1

 HEAD WILL BE SAVED ON UNIT   51 AT END OF TIME STEP  793, STRESS PERIOD    1
 
 SOLVING FOR HEAD 
                                                   Max.-Head-Change                         Max.-Flux-Residual
  Residual-Control   Outer-Iter.   Inner-Iter.     Column Row Layer    Maximum-Head-Change  Column Row Layer    Maximum-Flux-Residual          L2-NORM 
          0                 1           1            48   31     1      -0.7125608250E-03      27   48    1        -0.4846995497E+00      0.3680283196E+01
          0                 2           1            45   32     1      -0.4065167889E-04      10   31    1         0.1318006256E-01      0.7926359264E-01
          0                 3           1            34   44     2       0.1555779421E-04      46   31    1        -0.1772523116E-02      0.1720727854E-01
          0                 4           1            31   42     1       0.7429896191E-05      44   33    1        -0.7841789713E-03      0.8060234863E-02

    ------------------------------------------------
       NWT REQUIRED            4 OUTER ITERATIONS 
       AND A TOTAL OF          4 INNER ITERATIONS.
    ------------------------------------------------

 OUTPUT CONTROL FOR STRESS PERIOD    1   TIME STEP  794
    SAVE HEAD FOR ALL LAYERS
 SOLVING FOR ZETA FOR LAYER     1 ZONE     2

     610 UPPER PART EQS.       596 LOWER PART EQS.    BAND WIDTH + 1 =   35
 STRESS PERIOD=  1 TIMESTEP=794 LAYER=  1 ZONE=  2 ACTIVE CELLS= 1206 NUMBER OF EQUATIONS=    1206
 SOLVING FOR ZETA FOR LAYER     2 ZONE     2

     613 UPPER PART EQS.       612 LOWER PART EQS.    BAND WIDTH + 1 =   34
 STRESS PERIOD=  1 TIMESTEP=794 LAYER=  2 ZONE=  2 ACTIVE CELLS= 1225 NUMBER OF EQUATIONS=    1225
 UBUDSV SAVING "      ZETASRF  1" ON UNIT 55 AT TIME STEP794, STRESS PERIOD    1

 HEAD WILL BE SAVED ON UNIT   51 AT END OF TIME STEP  794, STRESS PERIOD    1
 
 SOLVING FOR HEAD 
                                                   Max.-Head-Change                         Max.-Flux-Residual
  Residual-Control   Outer-Iter.   Inner-Iter.     Column Row Layer    Maximum-Head-Change  Column Row Layer    Maximum-Flux-Residual          L2-NORM 
          0                 1           1            48   31     1       0.7375947780E-03      14   27    1        -0.4825826221E+00      0.3150809757E+01
          0                 2           1            45   32     1       0.4578077880E-04      45   32    1         0.1422019157E-01      0.7481338879E-01
          0                 3           1            43   31     2       0.2112373420E-04      47   30    1         0.1941898891E-02      0.1402997804E-01
          0                 4           1            20   32     2       0.1050060557E-04      45   28    1         0.9806862721E-03      0.8981890306E-02
          0                 5           1            22   30     2       0.8922517634E-05      47   30    1         0.5865947214E-03      0.7549712492E-02

    ------------------------------------------------
       NWT REQUIRED            5 OUTER ITERATIONS 
       AND A TOTAL OF          5 INNER ITERATIONS.
    ------------------------------------------------

 OUTPUT CONTROL FOR STRESS PERIOD    1   TIME STEP  795
    SAVE HEAD FOR ALL LAYERS
 SOLVING FOR ZETA FOR LAYER     1 ZONE     2

     598 UPPER PART EQS.       604 LOWER PART EQS.    BAND WIDTH + 1 =   29
 STRESS PERIOD=  1 TIMESTEP=795 LAYER=  1 ZONE=  2 ACTIVE CELLS= 1202 NUMBER OF EQUATIONS=    1202
 SOLVING FOR ZETA FOR LAYER     2 ZONE     2

     613 UPPER PART EQS.       612 LOWER PART EQS.    BAND WIDTH + 1 =   34
 STRESS PERIOD=  1 TIMESTEP=795 LAYER=  2 ZONE=  2 ACTIVE CELLS= 1225 NUMBER OF EQUATIONS=    1225
 UBUDSV SAVING "      ZETASRF  1" ON UNIT 55 AT TIME STEP795, STRESS PERIOD    1

 HEAD WILL BE SAVED ON UNIT   51 AT END OF TIME STEP  795, STRESS PERIOD    1
 
 SOLVING FOR HEAD 
                                                   Max.-Head-Change                         Max.-Flux-Residual
  Residual-Control   Outer-Iter.   Inner-Iter.     Column Row Layer    Maximum-Head-Change  Column Row Layer    Maximum-Flux-Residual          L2-NORM 
          0                 1           1            48   32     1      -0.7701305760E-03      35   14    1        -0.4797646721E+00      0.3932412201E+01
          0                 2           1            44   33     1      -0.5891208360E-04      45   32    1        -0.1532923064E-01      0.9709403098E-01
          0                 3           1            43   31     2      -0.2750254596E-04      46   31    1        -0.2403520989E-02      0.2002522700E-01
          0                 4           1            43   30     1      -0.1152726309E-04      44   33    1        -0.1045814160E-02      0.1135190344E-01
          0                 5           1            42   32     2      -0.1039752744E-04      46   31    1        -0.7184550491E-03      0.9062826943E-02
          0                 6           1            44   33     1      -0.7543501277E-05      44   33    1        -0.5782608304E-03      0.8024357753E-02

    ------------------------------------------------
       NWT REQUIRED            6 OUTER ITERATIONS 
       AND A TOTAL OF          6 INNER ITERATIONS.
    ------------------------------------------------

 OUTPUT CONTROL FOR STRESS PERIOD    1   TIME STEP  796
    SAVE HEAD FOR ALL LAYERS
 SOLVING FOR ZETA FOR LAYER     1 ZONE     2

     588 UPPER PART EQS.       590 LOWER PART EQS.    BAND WIDTH + 1 =   23
 STRESS PERIOD=  1 TIMESTEP=796 LAYER=  1 ZONE=  2 ACTIVE CELLS= 1178 NUMBER OF EQUATIONS=    1178
 SOLVING FOR ZETA FOR LAYER     2 ZONE     2

     613 UPPER PART EQS.       614 LOWER PART EQS.    BAND WIDTH + 1 =   34
 STRESS PERIOD=  1 TIMESTEP=796 LAYER=  2 ZONE=  2 ACTIVE CELLS= 1227 NUMBER OF EQUATIONS=    1227
 UBUDSV SAVING "      ZETASRF  1" ON UNIT 55 AT TIME STEP796, STRESS PERIOD    1

 HEAD WILL BE SAVED ON UNIT   51 AT END OF TIME STEP  796, STRESS PERIOD    1
 
 SOLVING FOR HEAD 
                                                   Max.-Head-Change                         Max.-Flux-Residual
  Residual-Control   Outer-Iter.   Inner-Iter.     Column Row Layer    Maximum-Head-Change  Column Row Layer    Maximum-Flux-Residual          L2-NORM 
          0                 1           1            48   32     1       0.7892188017E-03      27   14    1        -0.4863584909E+00      0.3802413855E+01
          0                 2           1            44   31     1       0.7781158784E-04      45   32    1         0.1619121755E-01      0.1072718431E+00
          0                 3           1            42   32     2       0.4212312277E-04      47   30    1         0.3433366215E-02      0.2904534651E-01
          0                 4           1            44   33     1       0.1763908502E-04      44   33    1         0.1616142480E-02      0.1686377090E-01
          0                 5           1            42   32     2       0.1907023330E-04      47   30    1         0.1159368038E-02      0.1329955854E-01
          0                 6           1            44   33     1       0.1068762626E-04      44   33    1         0.9205229653E-03      0.1148765090E-01
          0                 7           1            41   31     2       0.1389866308E-04      47   30    1         0.7007452750E-03      0.1006980251E-01
          0                 8           1            38   32     2       0.7950389740E-05      44   33    1         0.6801963117E-03      0.9099027648E-02

    ------------------------------------------------
       NWT REQUIRED            8 OUTER ITERATIONS 
       AND A TOTAL OF          8 INNER ITERATIONS.
    ------------------------------------------------

 OUTPUT CONTROL FOR STRESS PERIOD    1   TIME STEP  797
    SAVE HEAD FOR ALL LAYERS
 SOLVING FOR ZETA FOR LAYER     1 ZONE     2

     598 UPPER PART EQS.       610 LOWER PART EQS.    BAND WIDTH + 1 =   32
 STRESS PERIOD=  1 TIMESTEP=797 LAYER=  1 ZONE=  2 ACTIVE CELLS= 1208 NUMBER OF EQUATIONS=    1208
 SOLVING FOR ZETA FOR LAYER     2 ZONE     2

     613 UPPER PART EQS.       614 LOWER PART EQS.    BAND WIDTH + 1 =   34
 STRESS PERIOD=  1 TIMESTEP=797 LAYER=  2 ZONE=  2 ACTIVE CELLS= 1227 NUMBER OF EQUATIONS=    1227
 UBUDSV SAVING "      ZETASRF  1" ON UNIT 55 AT TIME STEP797, STRESS PERIOD    1

 HEAD WILL BE SAVED ON UNIT   51 AT END OF TIME STEP  797, STRESS PERIOD    1
 
 SOLVING FOR HEAD 
                                                   Max.-Head-Change                         Max.-Flux-Residual
  Residual-Control   Outer-Iter.   Inner-Iter.     Column Row Layer    Maximum-Head-Change  Column Row Layer    Maximum-Flux-Residual          L2-NORM 
          0                 1           1            48   31     1      -0.7514998595E-03      14   35    1        -0.4812721997E+00      0.3251255886E+01
          0                 2           1            44   33     1      -0.7038192886E-04      45   32    1        -0.1510498762E-01      0.9543214859E-01
          0                 3           1            43   31     2      -0.3838085493E-04      47   30    1        -0.3097399774E-02      0.2693489553E-01
          0                 4           1            44   33     1      -0.1490717049E-04      44   33    1        -0.1527728800E-02      0.1411044700E-01
          0                 5           1            47   30     1      -0.1227978668E-04      47   30    1        -0.1052064408E-02      0.8909595369E-02
          0                 6           1            44   33     1      -0.7063611493E-05      44   33    1        -0.7058009611E-03      0.6021892792E-02

    ------------------------------------------------
       NWT REQUIRED            6 OUTER ITERATIONS 
       AND A TOTAL OF          6 INNER ITERATIONS.
    ------------------------------------------------

 OUTPUT CONTROL FOR STRESS PERIOD    1   TIME STEP  798
    SAVE HEAD FOR ALL LAYERS
 SOLVING FOR ZETA FOR LAYER     1 ZONE     2

     598 UPPER PART EQS.       596 LOWER PART EQS.    BAND WIDTH + 1 =   27
 STRESS PERIOD=  1 TIMESTEP=798 LAYER=  1 ZONE=  2 ACTIVE CELLS= 1194 NUMBER OF EQUATIONS=    1194
 SOLVING FOR ZETA FOR LAYER     2 ZONE     2

     613 UPPER PART EQS.       616 LOWER PART EQS.    BAND WIDTH + 1 =   34
 STRESS PERIOD=  1 TIMESTEP=798 LAYER=  2 ZONE=  2 ACTIVE CELLS= 1229 NUMBER OF EQUATIONS=    1229
 UBUDSV SAVING "      ZETASRF  1" ON UNIT 55 AT TIME STEP798, STRESS PERIOD    1

 HEAD WILL BE SAVED ON UNIT   51 AT END OF TIME STEP  798, STRESS PERIOD    1
 
 SOLVING FOR HEAD 
                                                   Max.-Head-Change                         Max.-Flux-Residual
  Residual-Control   Outer-Iter.   Inner-Iter.     Column Row Layer    Maximum-Head-Change  Column Row Layer    Maximum-Flux-Residual          L2-NORM 
          0                 1           1            48   31     1       0.7211972220E-03      35   49    1         0.4855897102E+00      0.3814994559E+01
          0                 2           1            45   32     1       0.5562531065E-04      45   32    1         0.1389875005E-01      0.8851141777E-01
          0                 3           1            43   31     2       0.2929625875E-04      46   31    1         0.2423547331E-02      0.2204870330E-01
          0                 4           1            44   33     1       0.1144661577E-04      44   33    1         0.1223847263E-02      0.1143175205E-01
          0                 5           1            46   31     1       0.8533357047E-05      46   31    1         0.7687187486E-03      0.7032120218E-02

    ------------------------------------------------
       NWT REQUIRED            5 OUTER ITERATIONS 
       AND A TOTAL OF          5 INNER ITERATIONS.
    ------------------------------------------------

 OUTPUT CONTROL FOR STRESS PERIOD    1   TIME STEP  799
    SAVE HEAD FOR ALL LAYERS
 SOLVING FOR ZETA FOR LAYER     1 ZONE     2

     591 UPPER PART EQS.       598 LOWER PART EQS.    BAND WIDTH + 1 =   32
 STRESS PERIOD=  1 TIMESTEP=799 LAYER=  1 ZONE=  2 ACTIVE CELLS= 1189 NUMBER OF EQUATIONS=    1189
 SOLVING FOR ZETA FOR LAYER     2 ZONE     2

     613 UPPER PART EQS.       616 LOWER PART EQS.    BAND WIDTH + 1 =   34
 STRESS PERIOD=  1 TIMESTEP=799 LAYER=  2 ZONE=  2 ACTIVE CELLS= 1229 NUMBER OF EQUATIONS=    1229
 UBUDSV SAVING "      ZETASRF  1" ON UNIT 55 AT TIME STEP799, STRESS PERIOD    1

 HEAD WILL BE SAVED ON UNIT   51 AT END OF TIME STEP  799, STRESS PERIOD    1
 
 SOLVING FOR HEAD 
                                                   Max.-Head-Change                         Max.-Flux-Residual
  Residual-Control   Outer-Iter.   Inner-Iter.     Column Row Layer    Maximum-Head-Change  Column Row Layer    Maximum-Flux-Residual          L2-NORM 
          0                 1           1            35   48     1       0.7100690376E-03      27   14    1        -0.4824713073E+00      0.3442745697E+01
          0                 2           1            45   32     1      -0.4060702297E-04      31   14    1        -0.1621197157E-01      0.9032251462E-01
          0                 3           1            34   45     1       0.1871993224E-04      46   31    1        -0.1762906082E-02      0.1786649380E-01
          0                 4           1            34   42     2       0.8754591202E-05      44   33    1        -0.7370284214E-03      0.8276331652E-02

    ------------------------------------------------
       NWT REQUIRED            4 OUTER ITERATIONS 
       AND A TOTAL OF          4 INNER ITERATIONS.
    ------------------------------------------------

 OUTPUT CONTROL FOR STRESS PERIOD    1   TIME STEP  800
    SAVE HEAD FOR ALL LAYERS
 SOLVING FOR ZETA FOR LAYER     1 ZONE     2

     601 UPPER PART EQS.       594 LOWER PART EQS.    BAND WIDTH + 1 =   29
 STRESS PERIOD=  1 TIMESTEP=800 LAYER=  1 ZONE=  2 ACTIVE CELLS= 1195 NUMBER OF EQUATIONS=    1195
 SOLVING FOR ZETA FOR LAYER     2 ZONE     2

     613 UPPER PART EQS.       616 LOWER PART EQS.    BAND WIDTH + 1 =   34
 STRESS PERIOD=  1 TIMESTEP=800 LAYER=  2 ZONE=  2 ACTIVE CELLS= 1229 NUMBER OF EQUATIONS=    1229
 UBUDSV SAVING "      ZETASRF  1" ON UNIT 55 AT TIME STEP800, STRESS PERIOD    1

 HEAD WILL BE SAVED ON UNIT   51 AT END OF TIME STEP  800, STRESS PERIOD    1
 
 SOLVING FOR HEAD 
                                                   Max.-Head-Change                         Max.-Flux-Residual
  Residual-Control   Outer-Iter.   Inner-Iter.     Column Row Layer    Maximum-Head-Change  Column Row Layer    Maximum-Flux-Residual          L2-NORM 
          0                 1           1            48   31     1       0.7343914815E-03      14   27    1        -0.4804548036E+00      0.3656566014E+01
          0                 2           1            45   32     1       0.4656057623E-04      45   32    1         0.1416838442E-01      0.8596591209E-01
          0                 3           1            43   31     2       0.1993051748E-04      47   30    1         0.1980789383E-02      0.1541136383E-01
          0                 4           1            20   32     2       0.9471660255E-05      45   28    1         0.8667966323E-03      0.7911981947E-02

    ------------------------------------------------
       NWT REQUIRED            4 OUTER ITERATIONS 
       AND A TOTAL OF          4 INNER ITERATIONS.
    ------------------------------------------------

 OUTPUT CONTROL FOR STRESS PERIOD    1   TIME STEP  801
    SAVE HEAD FOR ALL LAYERS
 SOLVING FOR ZETA FOR LAYER     1 ZONE     2

     596 UPPER PART EQS.       604 LOWER PART EQS.    BAND WIDTH + 1 =   30
 STRESS PERIOD=  1 TIMESTEP=801 LAYER=  1 ZONE=  2 ACTIVE CELLS= 1200 NUMBER OF EQUATIONS=    1200
 SOLVING FOR ZETA FOR LAYER     2 ZONE     2

     613 UPPER PART EQS.       620 LOWER PART EQS.    BAND WIDTH + 1 =   34
 STRESS PERIOD=  1 TIMESTEP=801 LAYER=  2 ZONE=  2 ACTIVE CELLS= 1233 NUMBER OF EQUATIONS=    1233
 UBUDSV SAVING "      ZETASRF  1" ON UNIT 55 AT TIME STEP801, STRESS PERIOD    1

 HEAD WILL BE SAVED ON UNIT   51 AT END OF TIME STEP  801, STRESS PERIOD    1
 
 SOLVING FOR HEAD 
                                                   Max.-Head-Change                         Max.-Flux-Residual
  Residual-Control   Outer-Iter.   Inner-Iter.     Column Row Layer    Maximum-Head-Change  Column Row Layer    Maximum-Flux-Residual          L2-NORM 
          0                 1           1            48   32     1      -0.7651150940E-03      35   49    1         0.4840909588E+00      0.3835505245E+01
          0                 2           1            44   33     1      -0.5831712504E-04      45   32    1        -0.1521257755E-01      0.9341259874E-01
          0                 3           1            43   31     2      -0.2811373476E-04      46   31    1        -0.2389766368E-02      0.1884404361E-01
          0                 4           1            44   33     1      -0.1065115405E-04      44   33    1        -0.1041293931E-02      0.9568184015E-02
          0                 5           1            42   32     2      -0.8440463683E-05      46   31    1        -0.7272955392E-03      0.6413336976E-02

    ------------------------------------------------
       NWT REQUIRED            5 OUTER ITERATIONS 
       AND A TOTAL OF          5 INNER ITERATIONS.
    ------------------------------------------------

 OUTPUT CONTROL FOR STRESS PERIOD    1   TIME STEP  802
    SAVE HEAD FOR ALL LAYERS
 SOLVING FOR ZETA FOR LAYER     1 ZONE     2

     600 UPPER PART EQS.       594 LOWER PART EQS.    BAND WIDTH + 1 =   27
 STRESS PERIOD=  1 TIMESTEP=802 LAYER=  1 ZONE=  2 ACTIVE CELLS= 1194 NUMBER OF EQUATIONS=    1194
 SOLVING FOR ZETA FOR LAYER     2 ZONE     2

     613 UPPER PART EQS.       620 LOWER PART EQS.    BAND WIDTH + 1 =   34
 STRESS PERIOD=  1 TIMESTEP=802 LAYER=  2 ZONE=  2 ACTIVE CELLS= 1233 NUMBER OF EQUATIONS=    1233
 UBUDSV SAVING "      ZETASRF  1" ON UNIT 55 AT TIME STEP802, STRESS PERIOD    1

 HEAD WILL BE SAVED ON UNIT   51 AT END OF TIME STEP  802, STRESS PERIOD    1
 
 SOLVING FOR HEAD 
                                                   Max.-Head-Change                         Max.-Flux-Residual
  Residual-Control   Outer-Iter.   Inner-Iter.     Column Row Layer    Maximum-Head-Change  Column Row Layer    Maximum-Flux-Residual          L2-NORM 
          0                 1           1            48   32     1       0.7847673807E-03      27   14    1        -0.4814598544E+00      0.3429268694E+01
          0                 2           1            44   31     1       0.7797050679E-04      32   49    1         0.1638178851E-01      0.1044035696E+00
          0                 3           1            42   32     2       0.4432226580E-04      47   30    1         0.3496585347E-02      0.2925915872E-01
          0                 4           1            44   33     1       0.1870981938E-04      44   33    1         0.1706203936E-02      0.1717574715E-01
          0                 5           1            42   32     2       0.1944280466E-04      47   30    1         0.1272641584E-02      0.1314217690E-01
          0                 6           1            44   33     1       0.1104589448E-04      44   33    1         0.9683374876E-03      0.1106252030E-01
          0                 7           1            41   31     2       0.1362384180E-04      47   30    1         0.7371316870E-03      0.9557621256E-02
          0                 8           1            38   32     2       0.7767958856E-05      44   33    1         0.6743956387E-03      0.8606400272E-02

    ------------------------------------------------
       NWT REQUIRED            8 OUTER ITERATIONS 
       AND A TOTAL OF          8 INNER ITERATIONS.
    ------------------------------------------------

 OUTPUT CONTROL FOR STRESS PERIOD    1   TIME STEP  803
    SAVE HEAD FOR ALL LAYERS
 SOLVING FOR ZETA FOR LAYER     1 ZONE     2

     604 UPPER PART EQS.       606 LOWER PART EQS.    BAND WIDTH + 1 =   25
 STRESS PERIOD=  1 TIMESTEP=803 LAYER=  1 ZONE=  2 ACTIVE CELLS= 1210 NUMBER OF EQUATIONS=    1210
 SOLVING FOR ZETA FOR LAYER     2 ZONE     2

     613 UPPER PART EQS.       620 LOWER PART EQS.    BAND WIDTH + 1 =   34
 STRESS PERIOD=  1 TIMESTEP=803 LAYER=  2 ZONE=  2 ACTIVE CELLS= 1233 NUMBER OF EQUATIONS=    1233
 UBUDSV SAVING "      ZETASRF  1" ON UNIT 55 AT TIME STEP803, STRESS PERIOD    1

 HEAD WILL BE SAVED ON UNIT   51 AT END OF TIME STEP  803, STRESS PERIOD    1
 
 SOLVING FOR HEAD 
                                                   Max.-Head-Change                         Max.-Flux-Residual
  Residual-Control   Outer-Iter.   Inner-Iter.     Column Row Layer    Maximum-Head-Change  Column Row Layer    Maximum-Flux-Residual          L2-NORM 
          0                 1           1            48   31     1      -0.7478016847E-03      14   35    1        -0.4791723456E+00      0.3551374188E+01
          0                 2           1            44   33     1      -0.7063350781E-04      10   31    1         0.1526537745E-01      0.9110493836E-01
          0                 3           1            43   31     2      -0.3894519243E-04      47   30    1        -0.3093676171E-02      0.2576864133E-01
          0                 4           1            44   33     1      -0.1588897512E-04      44   33    1        -0.1550483915E-02      0.1388873127E-01
          0                 5           1            42   32     2      -0.1340317106E-04      47   30    1        -0.1079950926E-02      0.9176224724E-02
          0                 6           1            44   33     1      -0.7884945001E-05      44   33    1        -0.7582154352E-03      0.6677365853E-02

    ------------------------------------------------
       NWT REQUIRED            6 OUTER ITERATIONS 
       AND A TOTAL OF          6 INNER ITERATIONS.
    ------------------------------------------------

 OUTPUT CONTROL FOR STRESS PERIOD    1   TIME STEP  804
    SAVE HEAD FOR ALL LAYERS
 SOLVING FOR ZETA FOR LAYER     1 ZONE     2

     608 UPPER PART EQS.       602 LOWER PART EQS.    BAND WIDTH + 1 =   27
 STRESS PERIOD=  1 TIMESTEP=804 LAYER=  1 ZONE=  2 ACTIVE CELLS= 1210 NUMBER OF EQUATIONS=    1210
 SOLVING FOR ZETA FOR LAYER     2 ZONE     2

     613 UPPER PART EQS.       620 LOWER PART EQS.    BAND WIDTH + 1 =   34
 STRESS PERIOD=  1 TIMESTEP=804 LAYER=  2 ZONE=  2 ACTIVE CELLS= 1233 NUMBER OF EQUATIONS=    1233
 UBUDSV SAVING "      ZETASRF  1" ON UNIT 55 AT TIME STEP804, STRESS PERIOD    1

 HEAD WILL BE SAVED ON UNIT   51 AT END OF TIME STEP  804, STRESS PERIOD    1
 
 SOLVING FOR HEAD 
                                                   Max.-Head-Change                         Max.-Flux-Residual
  Residual-Control   Outer-Iter.   Inner-Iter.     Column Row Layer    Maximum-Head-Change  Column Row Layer    Maximum-Flux-Residual          L2-NORM 
          0                 1           1            35   14     1      -0.8844594569E-03      26   14    1        -0.5633088198E+00      0.4300183822E+01
          0                 2           1            33   48     1      -0.5046904816E-04      32   49    1        -0.1632394867E-01      0.1068562767E+00
          0                 3           1            34   45     1      -0.3013270237E-04      35   46    1        -0.2536693338E-02      0.2607685110E-01
          0                 4           1            33   20     1      -0.1566406915E-04      36   13    1        -0.1100791530E-02      0.1504469789E-01
          0                 5           1            31   43     2      -0.1231427314E-04      34   15    1        -0.1003428458E-02      0.1128520240E-01
          0                 6           1            32   17     1      -0.9510805594E-05      32   17    1        -0.6095047973E-03      0.9302431247E-02

    ------------------------------------------------
       NWT REQUIRED            6 OUTER ITERATIONS 
       AND A TOTAL OF          6 INNER ITERATIONS.
    ------------------------------------------------

 OUTPUT CONTROL FOR STRESS PERIOD    1   TIME STEP  805
    SAVE HEAD FOR ALL LAYERS
 SOLVING FOR ZETA FOR LAYER     1 ZONE     2

     589 UPPER PART EQS.       596 LOWER PART EQS.    BAND WIDTH + 1 =   34
 STRESS PERIOD=  1 TIMESTEP=805 LAYER=  1 ZONE=  2 ACTIVE CELLS= 1185 NUMBER OF EQUATIONS=    1185
 SOLVING FOR ZETA FOR LAYER     2 ZONE     2

     613 UPPER PART EQS.       620 LOWER PART EQS.    BAND WIDTH + 1 =   34
 STRESS PERIOD=  1 TIMESTEP=805 LAYER=  2 ZONE=  2 ACTIVE CELLS= 1233 NUMBER OF EQUATIONS=    1233
 UBUDSV SAVING "      ZETASRF  1" ON UNIT 55 AT TIME STEP805, STRESS PERIOD    1

 HEAD WILL BE SAVED ON UNIT   51 AT END OF TIME STEP  805, STRESS PERIOD    1
 
 SOLVING FOR HEAD 
                                                   Max.-Head-Change                         Max.-Flux-Residual
  Residual-Control   Outer-Iter.   Inner-Iter.     Column Row Layer    Maximum-Head-Change  Column Row Layer    Maximum-Flux-Residual          L2-NORM 
          0                 1           1            35   14     1       0.8800724756E-03      26   48    1         0.5469208076E+00      0.4048594271E+01
          0                 2           1            33   16     1       0.4963467883E-04      32   49    1         0.1491642683E-01      0.1049777023E+00
          0                 3           1            34   45     1       0.2739691974E-04      35   46    1         0.2455679910E-02      0.2469938837E-01
          0                 4           1            34   42     2       0.1237312277E-04      39   46    1         0.9381125352E-03      0.1247468512E-01
          0                 5           1            34   43     1       0.1018787370E-04      34   15    1         0.7464678243E-03      0.8877966874E-02
          0                 6           1            33   18     1       0.7283934320E-05      32   17    1         0.4644723640E-03      0.7192460375E-02

    ------------------------------------------------
       NWT REQUIRED            6 OUTER ITERATIONS 
       AND A TOTAL OF          6 INNER ITERATIONS.
    ------------------------------------------------

 OUTPUT CONTROL FOR STRESS PERIOD    1   TIME STEP  806
    SAVE HEAD FOR ALL LAYERS
 SOLVING FOR ZETA FOR LAYER     1 ZONE     2

     604 UPPER PART EQS.       600 LOWER PART EQS.    BAND WIDTH + 1 =   26
 STRESS PERIOD=  1 TIMESTEP=806 LAYER=  1 ZONE=  2 ACTIVE CELLS= 1204 NUMBER OF EQUATIONS=    1204
 SOLVING FOR ZETA FOR LAYER     2 ZONE     2

     613 UPPER PART EQS.       620 LOWER PART EQS.    BAND WIDTH + 1 =   34
 STRESS PERIOD=  1 TIMESTEP=806 LAYER=  2 ZONE=  2 ACTIVE CELLS= 1233 NUMBER OF EQUATIONS=    1233
 UBUDSV SAVING "      ZETASRF  1" ON UNIT 55 AT TIME STEP806, STRESS PERIOD    1

 HEAD WILL BE SAVED ON UNIT   51 AT END OF TIME STEP  806, STRESS PERIOD    1
 
 SOLVING FOR HEAD 
                                                   Max.-Head-Change                         Max.-Flux-Residual
  Residual-Control   Outer-Iter.   Inner-Iter.     Column Row Layer    Maximum-Head-Change  Column Row Layer    Maximum-Flux-Residual          L2-NORM 
          0                 1           1            48   31     1       0.7328327802E-03      48   35    1        -0.4780392175E+00      0.3288722886E+01
          0                 2           1            45   32     1       0.4799518094E-04      45   32    1         0.1425478735E-01      0.7435798439E-01
          0                 3           1            43   31     2       0.2385346353E-04      46   31    1         0.2069918188E-02      0.1546856892E-01
          0                 4           1            20   32     2       0.1098642888E-04      44   33    1         0.9398069519E-03      0.9239418478E-02
          0                 5           1            22   30     2       0.9124923207E-05      47   30    1         0.6591179557E-03      0.7419085553E-02

    ------------------------------------------------
       NWT REQUIRED            5 OUTER ITERATIONS 
       AND A TOTAL OF          5 INNER ITERATIONS.
    ------------------------------------------------

 OUTPUT CONTROL FOR STRESS PERIOD    1   TIME STEP  807
    SAVE HEAD FOR ALL LAYERS
 SOLVING FOR ZETA FOR LAYER     1 ZONE     2

     603 UPPER PART EQS.       600 LOWER PART EQS.    BAND WIDTH + 1 =   26
 STRESS PERIOD=  1 TIMESTEP=807 LAYER=  1 ZONE=  2 ACTIVE CELLS= 1203 NUMBER OF EQUATIONS=    1203
 SOLVING FOR ZETA FOR LAYER     2 ZONE     2

     613 UPPER PART EQS.       620 LOWER PART EQS.    BAND WIDTH + 1 =   34
 STRESS PERIOD=  1 TIMESTEP=807 LAYER=  2 ZONE=  2 ACTIVE CELLS= 1233 NUMBER OF EQUATIONS=    1233
 UBUDSV SAVING "      ZETASRF  1" ON UNIT 55 AT TIME STEP807, STRESS PERIOD    1

 HEAD WILL BE SAVED ON UNIT   51 AT END OF TIME STEP  807, STRESS PERIOD    1
 
 SOLVING FOR HEAD 
                                                   Max.-Head-Change                         Max.-Flux-Residual
  Residual-Control   Outer-Iter.   Inner-Iter.     Column Row Layer    Maximum-Head-Change  Column Row Layer    Maximum-Flux-Residual          L2-NORM 
          0                 1           1            48   32     1      -0.7632708845E-03      35   13    1         0.4859753279E+00      0.3773589917E+01
          0                 2           1            44   33     1      -0.5877937488E-04      32   49    1        -0.1629413546E-01      0.9566977364E-01
          0                 3           1            43   31     2      -0.2700723011E-04      46   31    1        -0.2436124414E-02      0.1935079103E-01
          0                 4           1            43   30     1      -0.1081661830E-04      44   33    1        -0.1050817159E-02      0.9528749468E-02
          0                 5           1            42   32     2      -0.8443730911E-05      46   31    1        -0.7020093476E-03      0.6519973756E-02

    ------------------------------------------------
       NWT REQUIRED            5 OUTER ITERATIONS 
       AND A TOTAL OF          5 INNER ITERATIONS.
    ------------------------------------------------

 OUTPUT CONTROL FOR STRESS PERIOD    1   TIME STEP  808
    SAVE HEAD FOR ALL LAYERS
 SOLVING FOR ZETA FOR LAYER     1 ZONE     2

     592 UPPER PART EQS.       592 LOWER PART EQS.    BAND WIDTH + 1 =   26
 STRESS PERIOD=  1 TIMESTEP=808 LAYER=  1 ZONE=  2 ACTIVE CELLS= 1184 NUMBER OF EQUATIONS=    1184
 SOLVING FOR ZETA FOR LAYER     2 ZONE     2

     613 UPPER PART EQS.       620 LOWER PART EQS.    BAND WIDTH + 1 =   34
 STRESS PERIOD=  1 TIMESTEP=808 LAYER=  2 ZONE=  2 ACTIVE CELLS= 1233 NUMBER OF EQUATIONS=    1233
 UBUDSV SAVING "      ZETASRF  1" ON UNIT 55 AT TIME STEP808, STRESS PERIOD    1

 HEAD WILL BE SAVED ON UNIT   51 AT END OF TIME STEP  808, STRESS PERIOD    1
 
 SOLVING FOR HEAD 
                                                   Max.-Head-Change                         Max.-Flux-Residual
  Residual-Control   Outer-Iter.   Inner-Iter.     Column Row Layer    Maximum-Head-Change  Column Row Layer    Maximum-Flux-Residual          L2-NORM 
          0                 1           1            48   32     1       0.7794463351E-03      27   14    1        -0.4790565080E+00      0.3483876486E+01
          0                 2           1            44   31     1       0.7697439300E-04      45   32    1         0.1599739556E-01      0.1027572641E+00
          0                 3           1            42   32     2       0.4343378243E-04      47   30    1         0.3425555582E-02      0.2889779126E-01
          0                 4           1            44   33     1       0.1859520597E-04      44   33    1         0.1673881493E-02      0.1720748597E-01
          0                 5           1            42   32     2       0.1989761216E-04      47   30    1         0.1254042358E-02      0.1356365556E-01
          0                 6           1            44   33     1       0.1137239455E-04      44   33    1         0.9783428598E-03      0.1162110365E-01
          0                 7           1            41   31     2       0.1413253234E-04      47   30    1         0.7601914061E-03      0.1017795725E-01
          0                 8           1            38   32     2       0.8398339319E-05      44   33    1         0.7022281351E-03      0.9191154423E-02

    ------------------------------------------------
       NWT REQUIRED            8 OUTER ITERATIONS 
       AND A TOTAL OF          8 INNER ITERATIONS.
    ------------------------------------------------

 OUTPUT CONTROL FOR STRESS PERIOD    1   TIME STEP  809
    SAVE HEAD FOR ALL LAYERS
 SOLVING FOR ZETA FOR LAYER     1 ZONE     2

     604 UPPER PART EQS.       599 LOWER PART EQS.    BAND WIDTH + 1 =   27
 STRESS PERIOD=  1 TIMESTEP=809 LAYER=  1 ZONE=  2 ACTIVE CELLS= 1203 NUMBER OF EQUATIONS=    1203
 SOLVING FOR ZETA FOR LAYER     2 ZONE     2

     613 UPPER PART EQS.       620 LOWER PART EQS.    BAND WIDTH + 1 =   34
 STRESS PERIOD=  1 TIMESTEP=809 LAYER=  2 ZONE=  2 ACTIVE CELLS= 1233 NUMBER OF EQUATIONS=    1233
 UBUDSV SAVING "      ZETASRF  1" ON UNIT 55 AT TIME STEP809, STRESS PERIOD    1

 HEAD WILL BE SAVED ON UNIT   51 AT END OF TIME STEP  809, STRESS PERIOD    1
 
 SOLVING FOR HEAD 
                                                   Max.-Head-Change                         Max.-Flux-Residual
  Residual-Control   Outer-Iter.   Inner-Iter.     Column Row Layer    Maximum-Head-Change  Column Row Layer    Maximum-Flux-Residual          L2-NORM 
          0                 1           1            48   31     1      -0.7433101544E-03      14   35    1        -0.4767465283E+00      0.3475057064E+01
          0                 2           1            44   33     1      -0.6924963396E-04      45   32    1        -0.1494219172E-01      0.8932868921E-01
          0                 3           1            43   31     2      -0.3953537120E-04      47   30    1        -0.3016327658E-02      0.2515339521E-01
          0                 4           1            44   33     1      -0.1518272728E-04      44   33    1        -0.1505212303E-02      0.1371837198E-01
          0                 5           1            42   32     2      -0.1297758336E-04      47   30    1        -0.1063755639E-02      0.9007763337E-02
          0                 6           1            44   33     1      -0.7691794006E-05      44   33    1        -0.7419858023E-03      0.6474833037E-02

    ------------------------------------------------
       NWT REQUIRED            6 OUTER ITERATIONS 
       AND A TOTAL OF          6 INNER ITERATIONS.
    ------------------------------------------------

 OUTPUT CONTROL FOR STRESS PERIOD    1   TIME STEP  810
    SAVE HEAD FOR ALL LAYERS
 SOLVING FOR ZETA FOR LAYER     1 ZONE     2

     602 UPPER PART EQS.       601 LOWER PART EQS.    BAND WIDTH + 1 =   25
 STRESS PERIOD=  1 TIMESTEP=810 LAYER=  1 ZONE=  2 ACTIVE CELLS= 1203 NUMBER OF EQUATIONS=    1203
 SOLVING FOR ZETA FOR LAYER     2 ZONE     2

     613 UPPER PART EQS.       620 LOWER PART EQS.    BAND WIDTH + 1 =   34
 STRESS PERIOD=  1 TIMESTEP=810 LAYER=  2 ZONE=  2 ACTIVE CELLS= 1233 NUMBER OF EQUATIONS=    1233
 UBUDSV SAVING "      ZETASRF  1" ON UNIT 55 AT TIME STEP810, STRESS PERIOD    1

 HEAD WILL BE SAVED ON UNIT   51 AT END OF TIME STEP  810, STRESS PERIOD    1
 
 SOLVING FOR HEAD 
                                                   Max.-Head-Change                         Max.-Flux-Residual
  Residual-Control   Outer-Iter.   Inner-Iter.     Column Row Layer    Maximum-Head-Change  Column Row Layer    Maximum-Flux-Residual          L2-NORM 
          0                 1           1            34   49     1       0.7513381609E-03      35   48    1        -0.4743897693E+00      0.3698050103E+01
          0                 2           1            45   32     1       0.5487062985E-04      31   14    1         0.1482423336E-01      0.9030919801E-01
          0                 3           1            43   31     2       0.2773662956E-04      46   31    1         0.2354374091E-02      0.2116077609E-01
          0                 4           1            44   33     1       0.1141219094E-04      44   33    1         0.1157845224E-02      0.1088708793E-01
          0                 5           1            46   31     1       0.7805807794E-05      46   31    1         0.7295478622E-03      0.6714696948E-02

    ------------------------------------------------
       NWT REQUIRED            5 OUTER ITERATIONS 
       AND A TOTAL OF          5 INNER ITERATIONS.
    ------------------------------------------------

 OUTPUT CONTROL FOR STRESS PERIOD    1   TIME STEP  811
    SAVE HEAD FOR ALL LAYERS
 SOLVING FOR ZETA FOR LAYER     1 ZONE     2

     591 UPPER PART EQS.       602 LOWER PART EQS.    BAND WIDTH + 1 =   32
 STRESS PERIOD=  1 TIMESTEP=811 LAYER=  1 ZONE=  2 ACTIVE CELLS= 1193 NUMBER OF EQUATIONS=    1193
 SOLVING FOR ZETA FOR LAYER     2 ZONE     2

     613 UPPER PART EQS.       620 LOWER PART EQS.    BAND WIDTH + 1 =   34
 STRESS PERIOD=  1 TIMESTEP=811 LAYER=  2 ZONE=  2 ACTIVE CELLS= 1233 NUMBER OF EQUATIONS=    1233
 UBUDSV SAVING "      ZETASRF  1" ON UNIT 55 AT TIME STEP811, STRESS PERIOD    1

 HEAD WILL BE SAVED ON UNIT   51 AT END OF TIME STEP  811, STRESS PERIOD    1
 
 SOLVING FOR HEAD 
                                                   Max.-Head-Change                         Max.-Flux-Residual
  Residual-Control   Outer-Iter.   Inner-Iter.     Column Row Layer    Maximum-Head-Change  Column Row Layer    Maximum-Flux-Residual          L2-NORM 
          0                 1           1            34   14     1       0.7376590945E-03      27   14    1        -0.4780255268E+00      0.3419246479E+01
          0                 2           1            45   32     1      -0.3980604907E-04      31   14    1        -0.1479119224E-01      0.8200584067E-01
          0                 3           1            34   45     1       0.1779506136E-04      46   31    1        -0.1713963736E-02      0.1615118937E-01
          0                 4           1            33   43     2       0.7866770051E-05      44   33    1        -0.7715930144E-03      0.7811756905E-02

    ------------------------------------------------
       NWT REQUIRED            4 OUTER ITERATIONS 
       AND A TOTAL OF          4 INNER ITERATIONS.
    ------------------------------------------------

 OUTPUT CONTROL FOR STRESS PERIOD    1   TIME STEP  812
    SAVE HEAD FOR ALL LAYERS
 SOLVING FOR ZETA FOR LAYER     1 ZONE     2

     598 UPPER PART EQS.       600 LOWER PART EQS.    BAND WIDTH + 1 =   25
 STRESS PERIOD=  1 TIMESTEP=812 LAYER=  1 ZONE=  2 ACTIVE CELLS= 1198 NUMBER OF EQUATIONS=    1198
 SOLVING FOR ZETA FOR LAYER     2 ZONE     2

     613 UPPER PART EQS.       620 LOWER PART EQS.    BAND WIDTH + 1 =   34
 STRESS PERIOD=  1 TIMESTEP=812 LAYER=  2 ZONE=  2 ACTIVE CELLS= 1233 NUMBER OF EQUATIONS=    1233
 UBUDSV SAVING "      ZETASRF  1" ON UNIT 55 AT TIME STEP812, STRESS PERIOD    1

 HEAD WILL BE SAVED ON UNIT   51 AT END OF TIME STEP  812, STRESS PERIOD    1
 
 SOLVING FOR HEAD 
                                                   Max.-Head-Change                         Max.-Flux-Residual
  Residual-Control   Outer-Iter.   Inner-Iter.     Column Row Layer    Maximum-Head-Change  Column Row Layer    Maximum-Flux-Residual          L2-NORM 
          0                 1           1            48   31     1       0.7262989133E-03      14   27    1        -0.4758480309E+00      0.3459545625E+01
          0                 2           1            44   33     1       0.4522243447E-04      45   32    1         0.1397945617E-01      0.7467661954E-01
          0                 3           1            43   31     2       0.2072200192E-04      47   30    1         0.1923802221E-02      0.1389119567E-01
          0                 4           1            20   32     2       0.8951124202E-05      45   28    1         0.9152788002E-03      0.7659438244E-02

    ------------------------------------------------
       NWT REQUIRED            4 OUTER ITERATIONS 
       AND A TOTAL OF          4 INNER ITERATIONS.
    ------------------------------------------------

 OUTPUT CONTROL FOR STRESS PERIOD    1   TIME STEP  813
    SAVE HEAD FOR ALL LAYERS
 SOLVING FOR ZETA FOR LAYER     1 ZONE     2

     604 UPPER PART EQS.       602 LOWER PART EQS.    BAND WIDTH + 1 =   25
 STRESS PERIOD=  1 TIMESTEP=813 LAYER=  1 ZONE=  2 ACTIVE CELLS= 1206 NUMBER OF EQUATIONS=    1206
 SOLVING FOR ZETA FOR LAYER     2 ZONE     2

     613 UPPER PART EQS.       620 LOWER PART EQS.    BAND WIDTH + 1 =   34
 STRESS PERIOD=  1 TIMESTEP=813 LAYER=  2 ZONE=  2 ACTIVE CELLS= 1233 NUMBER OF EQUATIONS=    1233
 UBUDSV SAVING "      ZETASRF  1" ON UNIT 55 AT TIME STEP813, STRESS PERIOD    1

 HEAD WILL BE SAVED ON UNIT   51 AT END OF TIME STEP  813, STRESS PERIOD    1
 
 SOLVING FOR HEAD 
                                                   Max.-Head-Change                         Max.-Flux-Residual
  Residual-Control   Outer-Iter.   Inner-Iter.     Column Row Layer    Maximum-Head-Change  Column Row Layer    Maximum-Flux-Residual          L2-NORM 
          0                 1           1            35   14     1      -0.8426359018E-03      36   48    1        -0.5560097192E+00      0.3893865317E+01
          0                 2           1            44   33     1      -0.5906076222E-04      32   49    1        -0.1910674936E-01      0.1033038241E+00
          0                 3           1            42   32     2      -0.2625726041E-04      47   30    1        -0.2492000156E-02      0.2136751822E-01
          0                 4           1            43   30     1      -0.1284434186E-04      44   33    1        -0.1113560526E-02      0.1150105390E-01
          0                 5           1            42   32     2      -0.1063672767E-04      46   31    1        -0.7735395481E-03      0.8884117150E-02
          0                 6           1            44   33     1      -0.8395789824E-05      44   33    1        -0.6016418211E-03      0.7664157731E-02

    ------------------------------------------------
       NWT REQUIRED            6 OUTER ITERATIONS 
       AND A TOTAL OF          6 INNER ITERATIONS.
    ------------------------------------------------

 OUTPUT CONTROL FOR STRESS PERIOD    1   TIME STEP  814
    SAVE HEAD FOR ALL LAYERS
 SOLVING FOR ZETA FOR LAYER     1 ZONE     2

     594 UPPER PART EQS.       588 LOWER PART EQS.    BAND WIDTH + 1 =   25
 STRESS PERIOD=  1 TIMESTEP=814 LAYER=  1 ZONE=  2 ACTIVE CELLS= 1182 NUMBER OF EQUATIONS=    1182
 SOLVING FOR ZETA FOR LAYER     2 ZONE     2

     613 UPPER PART EQS.       620 LOWER PART EQS.    BAND WIDTH + 1 =   34
 STRESS PERIOD=  1 TIMESTEP=814 LAYER=  2 ZONE=  2 ACTIVE CELLS= 1233 NUMBER OF EQUATIONS=    1233
 UBUDSV SAVING "      ZETASRF  1" ON UNIT 55 AT TIME STEP814, STRESS PERIOD    1

 HEAD WILL BE SAVED ON UNIT   51 AT END OF TIME STEP  814, STRESS PERIOD    1
 
 SOLVING FOR HEAD 
                                                   Max.-Head-Change                         Max.-Flux-Residual
  Residual-Control   Outer-Iter.   Inner-Iter.     Column Row Layer    Maximum-Head-Change  Column Row Layer    Maximum-Flux-Residual          L2-NORM 
          0                 1           1            35   14     1       0.8401353600E-03      26   14    1        -0.5575195207E+00      0.4206434194E+01
          0                 2           1            44   33     1       0.6295080942E-04      32   49    1         0.1839507123E-01      0.1163737996E+00
          0                 3           1            42   32     2       0.2874965991E-04      47   30    1         0.2779007158E-02      0.2493712177E-01
          0                 4           1            44   33     1       0.1434723391E-04      44   33    1         0.1271559337E-02      0.1261937168E-01
          0                 5           1            42   32     2       0.1179053843E-04      46   31    1         0.8410784161E-03      0.8900409712E-02
          0                 6           1            44   33     1       0.8726601679E-05      44   33    1         0.6655336243E-03      0.7061738657E-02

    ------------------------------------------------
       NWT REQUIRED            6 OUTER ITERATIONS 
       AND A TOTAL OF          6 INNER ITERATIONS.
    ------------------------------------------------

 OUTPUT CONTROL FOR STRESS PERIOD    1   TIME STEP  815
    SAVE HEAD FOR ALL LAYERS
 SOLVING FOR ZETA FOR LAYER     1 ZONE     2

     604 UPPER PART EQS.       602 LOWER PART EQS.    BAND WIDTH + 1 =   25
 STRESS PERIOD=  1 TIMESTEP=815 LAYER=  1 ZONE=  2 ACTIVE CELLS= 1206 NUMBER OF EQUATIONS=    1206
 SOLVING FOR ZETA FOR LAYER     2 ZONE     2

     613 UPPER PART EQS.       620 LOWER PART EQS.    BAND WIDTH + 1 =   34
 STRESS PERIOD=  1 TIMESTEP=815 LAYER=  2 ZONE=  2 ACTIVE CELLS= 1233 NUMBER OF EQUATIONS=    1233
 UBUDSV SAVING "      ZETASRF  1" ON UNIT 55 AT TIME STEP815, STRESS PERIOD    1

 HEAD WILL BE SAVED ON UNIT   51 AT END OF TIME STEP  815, STRESS PERIOD    1
 
 SOLVING FOR HEAD 
                                                   Max.-Head-Change                         Max.-Flux-Residual
  Residual-Control   Outer-Iter.   Inner-Iter.     Column Row Layer    Maximum-Head-Change  Column Row Layer    Maximum-Flux-Residual          L2-NORM 
          0                 1           1            26   48     1       0.7531260106E-03      26   48    1         0.5422005675E+00      0.3887318091E+01
          0                 2           1            44   33     1      -0.5614783520E-04      45   32    1        -0.1420553575E-01      0.9041314711E-01
          0                 3           1            43   31     2      -0.2761172212E-04      47   30    1        -0.2473761145E-02      0.2173881398E-01
          0                 4           1            44   33     1      -0.1117823183E-04      44   33    1        -0.1155063112E-02      0.1125386572E-01
          0                 5           1            47   30     1      -0.8309353256E-05      47   30    1        -0.8165017880E-03      0.6866376587E-02

    ------------------------------------------------
       NWT REQUIRED            5 OUTER ITERATIONS 
       AND A TOTAL OF          5 INNER ITERATIONS.
    ------------------------------------------------

 OUTPUT CONTROL FOR STRESS PERIOD    1   TIME STEP  816
    SAVE HEAD FOR ALL LAYERS
 SOLVING FOR ZETA FOR LAYER     1 ZONE     2

     608 UPPER PART EQS.       600 LOWER PART EQS.    BAND WIDTH + 1 =   27
 STRESS PERIOD=  1 TIMESTEP=816 LAYER=  1 ZONE=  2 ACTIVE CELLS= 1208 NUMBER OF EQUATIONS=    1208
 SOLVING FOR ZETA FOR LAYER     2 ZONE     2

     613 UPPER PART EQS.       620 LOWER PART EQS.    BAND WIDTH + 1 =   34
 STRESS PERIOD=  1 TIMESTEP=816 LAYER=  2 ZONE=  2 ACTIVE CELLS= 1233 NUMBER OF EQUATIONS=    1233
 UBUDSV SAVING "      ZETASRF  1" ON UNIT 55 AT TIME STEP816, STRESS PERIOD    1

 HEAD WILL BE SAVED ON UNIT   51 AT END OF TIME STEP  816, STRESS PERIOD    1
 
 SOLVING FOR HEAD 
                                                   Max.-Head-Change                         Max.-Flux-Residual
  Residual-Control   Outer-Iter.   Inner-Iter.     Column Row Layer    Maximum-Head-Change  Column Row Layer    Maximum-Flux-Residual          L2-NORM 
          0                 1           1            34   49     1       0.7493615311E-03      35   48    1        -0.4723785272E+00      0.3778168301E+01
          0                 2           1            45   32     1       0.5558279648E-04      31   14    1         0.1485297359E-01      0.9001962262E-01
          0                 3           1            43   31     2       0.2907373505E-04      46   31    1         0.2398588016E-02      0.2113510689E-01
          0                 4           1            44   33     1       0.1266698953E-04      44   33    1         0.1210125681E-02      0.1114611780E-01
          0                 5           1            42   32     2       0.9227534880E-05      47   34    1         0.7892455951E-03      0.7329432737E-02

    ------------------------------------------------
       NWT REQUIRED            5 OUTER ITERATIONS 
       AND A TOTAL OF          5 INNER ITERATIONS.
    ------------------------------------------------

 OUTPUT CONTROL FOR STRESS PERIOD    1   TIME STEP  817
    SAVE HEAD FOR ALL LAYERS
 SOLVING FOR ZETA FOR LAYER     1 ZONE     2

     594 UPPER PART EQS.       602 LOWER PART EQS.    BAND WIDTH + 1 =   31
 STRESS PERIOD=  1 TIMESTEP=817 LAYER=  1 ZONE=  2 ACTIVE CELLS= 1196 NUMBER OF EQUATIONS=    1196
 SOLVING FOR ZETA FOR LAYER     2 ZONE     2

     613 UPPER PART EQS.       620 LOWER PART EQS.    BAND WIDTH + 1 =   34
 STRESS PERIOD=  1 TIMESTEP=817 LAYER=  2 ZONE=  2 ACTIVE CELLS= 1233 NUMBER OF EQUATIONS=    1233
 UBUDSV SAVING "      ZETASRF  1" ON UNIT 55 AT TIME STEP817, STRESS PERIOD    1

 HEAD WILL BE SAVED ON UNIT   51 AT END OF TIME STEP  817, STRESS PERIOD    1
 
 SOLVING FOR HEAD 
                                                   Max.-Head-Change                         Max.-Flux-Residual
  Residual-Control   Outer-Iter.   Inner-Iter.     Column Row Layer    Maximum-Head-Change  Column Row Layer    Maximum-Flux-Residual          L2-NORM 
          0                 1           1            34   14     1       0.7351531486E-03      27   14    1        -0.4760954831E+00      0.3431118713E+01
          0                 2           1            45   32     1      -0.3936424322E-04      31   14    1        -0.1466727163E-01      0.8222983154E-01
          0                 3           1            34   45     1       0.1893329483E-04      46   31    1        -0.1698083956E-02      0.1697466590E-01
          0                 4           1            34   42     2       0.9239075440E-05      44   33    1        -0.7229017174E-03      0.8487382419E-02

    ------------------------------------------------
       NWT REQUIRED            4 OUTER ITERATIONS 
       AND A TOTAL OF          4 INNER ITERATIONS.
    ------------------------------------------------

 OUTPUT CONTROL FOR STRESS PERIOD    1   TIME STEP  818
    SAVE HEAD FOR ALL LAYERS
 SOLVING FOR ZETA FOR LAYER     1 ZONE     2

     602 UPPER PART EQS.       602 LOWER PART EQS.    BAND WIDTH + 1 =   24
 STRESS PERIOD=  1 TIMESTEP=818 LAYER=  1 ZONE=  2 ACTIVE CELLS= 1204 NUMBER OF EQUATIONS=    1204
 SOLVING FOR ZETA FOR LAYER     2 ZONE     2

     613 UPPER PART EQS.       620 LOWER PART EQS.    BAND WIDTH + 1 =   34
 STRESS PERIOD=  1 TIMESTEP=818 LAYER=  2 ZONE=  2 ACTIVE CELLS= 1233 NUMBER OF EQUATIONS=    1233
 UBUDSV SAVING "      ZETASRF  1" ON UNIT 55 AT TIME STEP818, STRESS PERIOD    1

 HEAD WILL BE SAVED ON UNIT   51 AT END OF TIME STEP  818, STRESS PERIOD    1
 
 SOLVING FOR HEAD 
                                                   Max.-Head-Change                         Max.-Flux-Residual
  Residual-Control   Outer-Iter.   Inner-Iter.     Column Row Layer    Maximum-Head-Change  Column Row Layer    Maximum-Flux-Residual          L2-NORM 
          0                 1           1            48   31     1       0.7218410279E-03      14   27    1        -0.4737368118E+00      0.3440475339E+01
          0                 2           1            44   33     1       0.4530800546E-04      45   32    1         0.1393280176E-01      0.7302309011E-01
          0                 3           1            43   31     2       0.2161969271E-04      47   30    1         0.1926203491E-02      0.1424830670E-01
          0                 4           1            20   32     2       0.1039602020E-04      45   28    1         0.1006292521E-02      0.8732499153E-02
          0                 5           1            42   32     2       0.8460844457E-05      47   30    1         0.6202690718E-03      0.7057458900E-02

    ------------------------------------------------
       NWT REQUIRED            5 OUTER ITERATIONS 
       AND A TOTAL OF          5 INNER ITERATIONS.
    ------------------------------------------------

 OUTPUT CONTROL FOR STRESS PERIOD    1   TIME STEP  819
    SAVE HEAD FOR ALL LAYERS
 SOLVING FOR ZETA FOR LAYER     1 ZONE     2

     602 UPPER PART EQS.       602 LOWER PART EQS.    BAND WIDTH + 1 =   26
 STRESS PERIOD=  1 TIMESTEP=819 LAYER=  1 ZONE=  2 ACTIVE CELLS= 1204 NUMBER OF EQUATIONS=    1204
 SOLVING FOR ZETA FOR LAYER     2 ZONE     2

     613 UPPER PART EQS.       620 LOWER PART EQS.    BAND WIDTH + 1 =   34
 STRESS PERIOD=  1 TIMESTEP=819 LAYER=  2 ZONE=  2 ACTIVE CELLS= 1233 NUMBER OF EQUATIONS=    1233
 UBUDSV SAVING "      ZETASRF  1" ON UNIT 55 AT TIME STEP819, STRESS PERIOD    1

 HEAD WILL BE SAVED ON UNIT   51 AT END OF TIME STEP  819, STRESS PERIOD    1
 
 SOLVING FOR HEAD 
                                                   Max.-Head-Change                         Max.-Flux-Residual
  Residual-Control   Outer-Iter.   Inner-Iter.     Column Row Layer    Maximum-Head-Change  Column Row Layer    Maximum-Flux-Residual          L2-NORM 
          0                 1           1            48   32     1      -0.7561714925E-03      35   13    1         0.4823259418E+00      0.3629497163E+01
          0                 2           1            44   33     1      -0.5856904542E-04      32   49    1        -0.1609151591E-01      0.9387353301E-01
          0                 3           1            43   31     2      -0.2711411895E-04      46   31    1        -0.2437615302E-02      0.1937851084E-01
          0                 4           1            43   30     1      -0.1119282825E-04      44   33    1        -0.1058814511E-02      0.9721464319E-02
          0                 5           1            42   32     2      -0.8532862107E-05      46   31    1        -0.7008770670E-03      0.6752097083E-02

    ------------------------------------------------
       NWT REQUIRED            5 OUTER ITERATIONS 
       AND A TOTAL OF          5 INNER ITERATIONS.
    ------------------------------------------------

 OUTPUT CONTROL FOR STRESS PERIOD    1   TIME STEP  820
    SAVE HEAD FOR ALL LAYERS
 SOLVING FOR ZETA FOR LAYER     1 ZONE     2

     590 UPPER PART EQS.       592 LOWER PART EQS.    BAND WIDTH + 1 =   25
 STRESS PERIOD=  1 TIMESTEP=820 LAYER=  1 ZONE=  2 ACTIVE CELLS= 1182 NUMBER OF EQUATIONS=    1182
 SOLVING FOR ZETA FOR LAYER     2 ZONE     2

     613 UPPER PART EQS.       620 LOWER PART EQS.    BAND WIDTH + 1 =   34
 STRESS PERIOD=  1 TIMESTEP=820 LAYER=  2 ZONE=  2 ACTIVE CELLS= 1233 NUMBER OF EQUATIONS=    1233
 UBUDSV SAVING "      ZETASRF  1" ON UNIT 55 AT TIME STEP820, STRESS PERIOD    1

 HEAD WILL BE SAVED ON UNIT   51 AT END OF TIME STEP  820, STRESS PERIOD    1
 
 SOLVING FOR HEAD 
                                                   Max.-Head-Change                         Max.-Flux-Residual
  Residual-Control   Outer-Iter.   Inner-Iter.     Column Row Layer    Maximum-Head-Change  Column Row Layer    Maximum-Flux-Residual          L2-NORM 
          0                 1           1            48   32     1       0.7732884334E-03      27   14    1        -0.4746074042E+00      0.3535410437E+01
          0                 2           1            44   31     1       0.7678969205E-04      45   32    1         0.1586748011E-01      0.1035883981E+00
          0                 3           1            42   32     2       0.4208449996E-04      47   30    1         0.3422769946E-02      0.2879184277E-01
          0                 4           1            44   33     1       0.1827855048E-04      44   33    1         0.1655238450E-02      0.1701787507E-01
          0                 5           1            42   32     2       0.1928217886E-04      47   30    1         0.1213687938E-02      0.1333248867E-01
          0                 6           1            44   33     1       0.1109474611E-04      44   33    1         0.9530702422E-03      0.1146916397E-01
          0                 7           1            41   31     2       0.1379636112E-04      47   30    1         0.7305607436E-03      0.1000294630E-01
          0                 8           1            38   32     2       0.8133598929E-05      44   33    1         0.6903326296E-03      0.9078570614E-02

    ------------------------------------------------
       NWT REQUIRED            8 OUTER ITERATIONS 
       AND A TOTAL OF          8 INNER ITERATIONS.
    ------------------------------------------------

 OUTPUT CONTROL FOR STRESS PERIOD    1   TIME STEP  821
    SAVE HEAD FOR ALL LAYERS
 SOLVING FOR ZETA FOR LAYER     1 ZONE     2

     604 UPPER PART EQS.       604 LOWER PART EQS.    BAND WIDTH + 1 =   25
 STRESS PERIOD=  1 TIMESTEP=821 LAYER=  1 ZONE=  2 ACTIVE CELLS= 1208 NUMBER OF EQUATIONS=    1208
 SOLVING FOR ZETA FOR LAYER     2 ZONE     2

     613 UPPER PART EQS.       620 LOWER PART EQS.    BAND WIDTH + 1 =   34
 STRESS PERIOD=  1 TIMESTEP=821 LAYER=  2 ZONE=  2 ACTIVE CELLS= 1233 NUMBER OF EQUATIONS=    1233
 UBUDSV SAVING "      ZETASRF  1" ON UNIT 55 AT TIME STEP821, STRESS PERIOD    1

 HEAD WILL BE SAVED ON UNIT   51 AT END OF TIME STEP  821, STRESS PERIOD    1
 
 SOLVING FOR HEAD 
                                                   Max.-Head-Change                         Max.-Flux-Residual
  Residual-Control   Outer-Iter.   Inner-Iter.     Column Row Layer    Maximum-Head-Change  Column Row Layer    Maximum-Flux-Residual          L2-NORM 
          0                 1           1            48   31     1      -0.7361984624E-03      36   49    1         0.5529096363E+00      0.3570492306E+01
          0                 2           1            44   33     1      -0.6835530552E-04      45   32    1        -0.1480837150E-01      0.9136584430E-01
          0                 3           1            43   31     2      -0.3919470816E-04      47   30    1        -0.2989497149E-02      0.2505575030E-01
          0                 4           1            44   33     1      -0.1636817112E-04      44   33    1        -0.1519812188E-02      0.1410760955E-01
          0                 5           1            42   32     2      -0.1482801679E-04      47   30    1        -0.1095702460E-02      0.9914991964E-02
          0                 6           1            44   33     1      -0.9235204232E-05      44   33    1        -0.8062131848E-03      0.7766605399E-02

    ------------------------------------------------
       NWT REQUIRED            6 OUTER ITERATIONS 
       AND A TOTAL OF          6 INNER ITERATIONS.
    ------------------------------------------------

 OUTPUT CONTROL FOR STRESS PERIOD    1   TIME STEP  822
    SAVE HEAD FOR ALL LAYERS
 SOLVING FOR ZETA FOR LAYER     1 ZONE     2

     596 UPPER PART EQS.       604 LOWER PART EQS.    BAND WIDTH + 1 =   29
 STRESS PERIOD=  1 TIMESTEP=822 LAYER=  1 ZONE=  2 ACTIVE CELLS= 1200 NUMBER OF EQUATIONS=    1200
 SOLVING FOR ZETA FOR LAYER     2 ZONE     2

     613 UPPER PART EQS.       620 LOWER PART EQS.    BAND WIDTH + 1 =   34
 STRESS PERIOD=  1 TIMESTEP=822 LAYER=  2 ZONE=  2 ACTIVE CELLS= 1233 NUMBER OF EQUATIONS=    1233
 UBUDSV SAVING "      ZETASRF  1" ON UNIT 55 AT TIME STEP822, STRESS PERIOD    1

 HEAD WILL BE SAVED ON UNIT   51 AT END OF TIME STEP  822, STRESS PERIOD    1
 
 SOLVING FOR HEAD 
                                                   Max.-Head-Change                         Max.-Flux-Residual
  Residual-Control   Outer-Iter.   Inner-Iter.     Column Row Layer    Maximum-Head-Change  Column Row Layer    Maximum-Flux-Residual          L2-NORM 
          0                 1           1            34   13     1       0.7064485386E-03      14   26    1        -0.5518662470E+00      0.4237813129E+01
          0                 2           1            45   32     1       0.4141202300E-04      31   14    1         0.1438576331E-01      0.8499997196E-01
          0                 3           1            17   32     1       0.1635379135E-04      47   30    1         0.1690671889E-02      0.1517066701E-01
          0                 4           1            31   18     1      -0.7161173427E-05      44   33    1         0.7501363950E-03      0.7869501743E-02

    ------------------------------------------------
       NWT REQUIRED            4 OUTER ITERATIONS 
       AND A TOTAL OF          4 INNER ITERATIONS.
    ------------------------------------------------

 OUTPUT CONTROL FOR STRESS PERIOD    1   TIME STEP  823
    SAVE HEAD FOR ALL LAYERS
 SOLVING FOR ZETA FOR LAYER     1 ZONE     2

     590 UPPER PART EQS.       604 LOWER PART EQS.    BAND WIDTH + 1 =   36
 STRESS PERIOD=  1 TIMESTEP=823 LAYER=  1 ZONE=  2 ACTIVE CELLS= 1194 NUMBER OF EQUATIONS=    1194
 SOLVING FOR ZETA FOR LAYER     2 ZONE     2

     613 UPPER PART EQS.       620 LOWER PART EQS.    BAND WIDTH + 1 =   34
 STRESS PERIOD=  1 TIMESTEP=823 LAYER=  2 ZONE=  2 ACTIVE CELLS= 1233 NUMBER OF EQUATIONS=    1233
 UBUDSV SAVING "      ZETASRF  1" ON UNIT 55 AT TIME STEP823, STRESS PERIOD    1

 HEAD WILL BE SAVED ON UNIT   51 AT END OF TIME STEP  823, STRESS PERIOD    1
 
 SOLVING FOR HEAD 
                                                   Max.-Head-Change                         Max.-Flux-Residual
  Residual-Control   Outer-Iter.   Inner-Iter.     Column Row Layer    Maximum-Head-Change  Column Row Layer    Maximum-Flux-Residual          L2-NORM 
          0                 1           1            26   14     1      -0.8031547546E-03      26   48    1        -0.5541959602E+00      0.4106888964E+01
          0                 2           1            29   48     1       0.3248715371E-04      31   14    1        -0.1669061480E-01      0.9630814783E-01
          0                 3           1            35   46     1       0.1256600081E-04      32   46    2         0.1540443651E-02      0.1463205258E-01
          0                 4           1            38   43     1       0.6733992452E-05      39   41    2         0.6596494312E-03      0.5614901436E-02

    ------------------------------------------------
       NWT REQUIRED            4 OUTER ITERATIONS 
       AND A TOTAL OF          4 INNER ITERATIONS.
    ------------------------------------------------

 OUTPUT CONTROL FOR STRESS PERIOD    1   TIME STEP  824
    SAVE HEAD FOR ALL LAYERS
 SOLVING FOR ZETA FOR LAYER     1 ZONE     2

     605 UPPER PART EQS.       610 LOWER PART EQS.    BAND WIDTH + 1 =   25
 STRESS PERIOD=  1 TIMESTEP=824 LAYER=  1 ZONE=  2 ACTIVE CELLS= 1215 NUMBER OF EQUATIONS=    1215
 SOLVING FOR ZETA FOR LAYER     2 ZONE     2

     613 UPPER PART EQS.       620 LOWER PART EQS.    BAND WIDTH + 1 =   34
 STRESS PERIOD=  1 TIMESTEP=824 LAYER=  2 ZONE=  2 ACTIVE CELLS= 1233 NUMBER OF EQUATIONS=    1233
 UBUDSV SAVING "      ZETASRF  1" ON UNIT 55 AT TIME STEP824, STRESS PERIOD    1

 HEAD WILL BE SAVED ON UNIT   51 AT END OF TIME STEP  824, STRESS PERIOD    1
 
 SOLVING FOR HEAD 
                                                   Max.-Head-Change                         Max.-Flux-Residual
  Residual-Control   Outer-Iter.   Inner-Iter.     Column Row Layer    Maximum-Head-Change  Column Row Layer    Maximum-Flux-Residual          L2-NORM 
          0                 1           1            26   48     1       0.7566753056E-03      26   48    1         0.5381023143E+00      0.3569806106E+01
          0                 2           1            44   33     1       0.4600491196E-04      45   32    1         0.1396647258E-01      0.7923890056E-01
          0                 3           1            43   31     2       0.2202906506E-04      47   30    1         0.1999267765E-02      0.1496401801E-01
          0                 4           1            44   33     1       0.1051181380E-04      44   33    1         0.8785706596E-03      0.9151221854E-02
          0                 5           1            42   32     2       0.8820480307E-05      47   30    1         0.6332495391E-03      0.7525999595E-02

    ------------------------------------------------
       NWT REQUIRED            5 OUTER ITERATIONS 
       AND A TOTAL OF          5 INNER ITERATIONS.
    ------------------------------------------------

 OUTPUT CONTROL FOR STRESS PERIOD    1   TIME STEP  825
    SAVE HEAD FOR ALL LAYERS
 SOLVING FOR ZETA FOR LAYER     1 ZONE     2

     605 UPPER PART EQS.       610 LOWER PART EQS.    BAND WIDTH + 1 =   28
 STRESS PERIOD=  1 TIMESTEP=825 LAYER=  1 ZONE=  2 ACTIVE CELLS= 1215 NUMBER OF EQUATIONS=    1215
 SOLVING FOR ZETA FOR LAYER     2 ZONE     2

     613 UPPER PART EQS.       620 LOWER PART EQS.    BAND WIDTH + 1 =   34
 STRESS PERIOD=  1 TIMESTEP=825 LAYER=  2 ZONE=  2 ACTIVE CELLS= 1233 NUMBER OF EQUATIONS=    1233
 UBUDSV SAVING "      ZETASRF  1" ON UNIT 55 AT TIME STEP825, STRESS PERIOD    1

 HEAD WILL BE SAVED ON UNIT   51 AT END OF TIME STEP  825, STRESS PERIOD    1
 
 SOLVING FOR HEAD 
                                                   Max.-Head-Change                         Max.-Flux-Residual
  Residual-Control   Outer-Iter.   Inner-Iter.     Column Row Layer    Maximum-Head-Change  Column Row Layer    Maximum-Flux-Residual          L2-NORM 
          0                 1           1            48   32     1      -0.7508115024E-03      35   13    1         0.4828269086E+00      0.3786303394E+01
          0                 2           1            44   33     1      -0.5743603929E-04      32   49    1        -0.1607445829E-01      0.9279146693E-01
          0                 3           1            43   31     2      -0.2661129098E-04      46   31    1        -0.2358093623E-02      0.1855615619E-01
          0                 4           1            43   30     1      -0.1081496375E-04      44   33    1        -0.1023640272E-02      0.9395715794E-02
          0                 5           1            42   32     2      -0.8345846296E-05      46   31    1        -0.7084724166E-03      0.6404746215E-02

    ------------------------------------------------
       NWT REQUIRED            5 OUTER ITERATIONS 
       AND A TOTAL OF          5 INNER ITERATIONS.
    ------------------------------------------------

 OUTPUT CONTROL FOR STRESS PERIOD    1   TIME STEP  826
    SAVE HEAD FOR ALL LAYERS
 SOLVING FOR ZETA FOR LAYER     1 ZONE     2

     600 UPPER PART EQS.       598 LOWER PART EQS.    BAND WIDTH + 1 =   23
 STRESS PERIOD=  1 TIMESTEP=826 LAYER=  1 ZONE=  2 ACTIVE CELLS= 1198 NUMBER OF EQUATIONS=    1198
 SOLVING FOR ZETA FOR LAYER     2 ZONE     2

     613 UPPER PART EQS.       620 LOWER PART EQS.    BAND WIDTH + 1 =   34
 STRESS PERIOD=  1 TIMESTEP=826 LAYER=  2 ZONE=  2 ACTIVE CELLS= 1233 NUMBER OF EQUATIONS=    1233
 UBUDSV SAVING "      ZETASRF  1" ON UNIT 55 AT TIME STEP826, STRESS PERIOD    1

 HEAD WILL BE SAVED ON UNIT   51 AT END OF TIME STEP  826, STRESS PERIOD    1
 
 SOLVING FOR HEAD 
                                                   Max.-Head-Change                         Max.-Flux-Residual
  Residual-Control   Outer-Iter.   Inner-Iter.     Column Row Layer    Maximum-Head-Change  Column Row Layer    Maximum-Flux-Residual          L2-NORM 
          0                 1           1            48   32     1       0.7691835325E-03      27   14    1        -0.4728473990E+00      0.3497910633E+01
          0                 2           1            44   31     1       0.7646114859E-04      45   32    1         0.1578272667E-01      0.1017351333E+00
          0                 3           1            42   32     2       0.4215882388E-04      47   30    1         0.3407151997E-02      0.2858061597E-01
          0                 4           1            44   33     1       0.1849128574E-04      44   33    1         0.1654801066E-02      0.1713894868E-01
          0                 5           1            42   32     2       0.1969767479E-04      47   30    1         0.1228494115E-02      0.1362884999E-01
          0                 6           1            44   33     1       0.1130868699E-04      44   33    1         0.9699631428E-03      0.1178812981E-01
          0                 7           1            41   31     2       0.1411159913E-04      47   30    1         0.7470108885E-03      0.1032995942E-01
          0                 8           1            38   32     2       0.8417820328E-05      44   33    1         0.7064651852E-03      0.9375698890E-02

    ------------------------------------------------
       NWT REQUIRED            8 OUTER ITERATIONS 
       AND A TOTAL OF          8 INNER ITERATIONS.
    ------------------------------------------------

 OUTPUT CONTROL FOR STRESS PERIOD    1   TIME STEP  827
    SAVE HEAD FOR ALL LAYERS
 SOLVING FOR ZETA FOR LAYER     1 ZONE     2

     606 UPPER PART EQS.       606 LOWER PART EQS.    BAND WIDTH + 1 =   25
 STRESS PERIOD=  1 TIMESTEP=827 LAYER=  1 ZONE=  2 ACTIVE CELLS= 1212 NUMBER OF EQUATIONS=    1212
 SOLVING FOR ZETA FOR LAYER     2 ZONE     2

     613 UPPER PART EQS.       620 LOWER PART EQS.    BAND WIDTH + 1 =   34
 STRESS PERIOD=  1 TIMESTEP=827 LAYER=  2 ZONE=  2 ACTIVE CELLS= 1233 NUMBER OF EQUATIONS=    1233
 UBUDSV SAVING "      ZETASRF  1" ON UNIT 55 AT TIME STEP827, STRESS PERIOD    1

 HEAD WILL BE SAVED ON UNIT   51 AT END OF TIME STEP  827, STRESS PERIOD    1
 
 SOLVING FOR HEAD 
                                                   Max.-Head-Change                         Max.-Flux-Residual
  Residual-Control   Outer-Iter.   Inner-Iter.     Column Row Layer    Maximum-Head-Change  Column Row Layer    Maximum-Flux-Residual          L2-NORM 
          0                 1           1            48   31     1      -0.7322079260E-03      14   35    1        -0.4704152196E+00      0.3315767811E+01
          0                 2           1            44   33     1      -0.6849652463E-04      45   32    1        -0.1472170198E-01      0.8773849794E-01
          0                 3           1            43   31     2      -0.3810519799E-04      47   30    1        -0.2979771132E-02      0.2476074334E-01
          0                 4           1            44   33     1      -0.1498045962E-04      44   33    1        -0.1484564171E-02      0.1331428708E-01
          0                 5           1            42   32     2      -0.1251053605E-04      47   30    1        -0.1038105768E-02      0.8683114326E-02
          0                 6           1            44   33     1      -0.7502077040E-05      44   33    1        -0.7163564301E-03      0.6221992361E-02

    ------------------------------------------------
       NWT REQUIRED            6 OUTER ITERATIONS 
       AND A TOTAL OF          6 INNER ITERATIONS.
    ------------------------------------------------

 OUTPUT CONTROL FOR STRESS PERIOD    1   TIME STEP  828
    SAVE HEAD FOR ALL LAYERS
 SOLVING FOR ZETA FOR LAYER     1 ZONE     2

     604 UPPER PART EQS.       596 LOWER PART EQS.    BAND WIDTH + 1 =   28
 STRESS PERIOD=  1 TIMESTEP=828 LAYER=  1 ZONE=  2 ACTIVE CELLS= 1200 NUMBER OF EQUATIONS=    1200
 SOLVING FOR ZETA FOR LAYER     2 ZONE     2

     613 UPPER PART EQS.       616 LOWER PART EQS.    BAND WIDTH + 1 =   34
 STRESS PERIOD=  1 TIMESTEP=828 LAYER=  2 ZONE=  2 ACTIVE CELLS= 1229 NUMBER OF EQUATIONS=    1229
 UBUDSV SAVING "      ZETASRF  1" ON UNIT 55 AT TIME STEP828, STRESS PERIOD    1

 HEAD WILL BE SAVED ON UNIT   51 AT END OF TIME STEP  828, STRESS PERIOD    1
 
 SOLVING FOR HEAD 
                                                   Max.-Head-Change                         Max.-Flux-Residual
  Residual-Control   Outer-Iter.   Inner-Iter.     Column Row Layer    Maximum-Head-Change  Column Row Layer    Maximum-Flux-Residual          L2-NORM 
          0                 1           1            35   14     1      -0.8679655271E-03      36   48    1        -0.5487198527E+00      0.4071835669E+01
          0                 2           1            45   32     1       0.5390274254E-04      32   49    1        -0.1659677209E-01      0.9996775306E-01
          0                 3           1            43   31     2       0.2648374575E-04      46   31    1         0.2335799565E-02      0.2351964044E-01
          0                 4           1            32   17     1      -0.1061940972E-04      44   33    1         0.1124929099E-02      0.1220727096E-01
          0                 5           1            34   15     1      -0.8183605067E-05      34   15    1        -0.8067058684E-03      0.7658890492E-02

    ------------------------------------------------
       NWT REQUIRED            5 OUTER ITERATIONS 
       AND A TOTAL OF          5 INNER ITERATIONS.
    ------------------------------------------------

 OUTPUT CONTROL FOR STRESS PERIOD    1   TIME STEP  829
    SAVE HEAD FOR ALL LAYERS
 SOLVING FOR ZETA FOR LAYER     1 ZONE     2

     594 UPPER PART EQS.       598 LOWER PART EQS.    BAND WIDTH + 1 =   30
 STRESS PERIOD=  1 TIMESTEP=829 LAYER=  1 ZONE=  2 ACTIVE CELLS= 1192 NUMBER OF EQUATIONS=    1192
 SOLVING FOR ZETA FOR LAYER     2 ZONE     2

     613 UPPER PART EQS.       620 LOWER PART EQS.    BAND WIDTH + 1 =   34
 STRESS PERIOD=  1 TIMESTEP=829 LAYER=  2 ZONE=  2 ACTIVE CELLS= 1233 NUMBER OF EQUATIONS=    1233
 UBUDSV SAVING "      ZETASRF  1" ON UNIT 55 AT TIME STEP829, STRESS PERIOD    1

 HEAD WILL BE SAVED ON UNIT   51 AT END OF TIME STEP  829, STRESS PERIOD    1
 
 SOLVING FOR HEAD 
                                                   Max.-Head-Change                         Max.-Flux-Residual
  Residual-Control   Outer-Iter.   Inner-Iter.     Column Row Layer    Maximum-Head-Change  Column Row Layer    Maximum-Flux-Residual          L2-NORM 
          0                 1           1            35   14     1       0.8645418718E-03      14   36    1        -0.5483286342E+00      0.3858907900E+01
          0                 2           1            45   32     1      -0.5240981261E-04      32   49    1         0.1512807911E-01      0.1007646084E+00
          0                 3           1            43   31     2      -0.2632585414E-04      46   31    1        -0.2371871274E-02      0.2324931724E-01
          0                 4           1            44   33     1      -0.1130479879E-04      44   33    1        -0.1150780100E-02      0.1128046161E-01
          0                 5           1            16   31     1      -0.7941463927E-05      46   31    1        -0.7358446321E-03      0.6945142265E-02

    ------------------------------------------------
       NWT REQUIRED            5 OUTER ITERATIONS 
       AND A TOTAL OF          5 INNER ITERATIONS.
    ------------------------------------------------

 OUTPUT CONTROL FOR STRESS PERIOD    1   TIME STEP  830
    SAVE HEAD FOR ALL LAYERS
 SOLVING FOR ZETA FOR LAYER     1 ZONE     2

     594 UPPER PART EQS.       602 LOWER PART EQS.    BAND WIDTH + 1 =   27
 STRESS PERIOD=  1 TIMESTEP=830 LAYER=  1 ZONE=  2 ACTIVE CELLS= 1196 NUMBER OF EQUATIONS=    1196
 SOLVING FOR ZETA FOR LAYER     2 ZONE     2

     613 UPPER PART EQS.       620 LOWER PART EQS.    BAND WIDTH + 1 =   34
 STRESS PERIOD=  1 TIMESTEP=830 LAYER=  2 ZONE=  2 ACTIVE CELLS= 1233 NUMBER OF EQUATIONS=    1233
 UBUDSV SAVING "      ZETASRF  1" ON UNIT 55 AT TIME STEP830, STRESS PERIOD    1

 HEAD WILL BE SAVED ON UNIT   51 AT END OF TIME STEP  830, STRESS PERIOD    1
 
 SOLVING FOR HEAD 
                                                   Max.-Head-Change                         Max.-Flux-Residual
  Residual-Control   Outer-Iter.   Inner-Iter.     Column Row Layer    Maximum-Head-Change  Column Row Layer    Maximum-Flux-Residual          L2-NORM 
          0                 1           1            48   31     1       0.7272323615E-03      14   36    1         0.5337168090E+00      0.3711988183E+01
          0                 2           1            44   33     1       0.5618491173E-04      45   32    1         0.1440424298E-01      0.7995279268E-01
          0                 3           1            43   31     2       0.3019303569E-04      46   31    1         0.2429389967E-02      0.1948807137E-01
          0                 4           1            44   33     1       0.1128583812E-04      44   33    1         0.1162493613E-02      0.1046296815E-01
          0                 5           1            42   32     2       0.1099952375E-04      47   30    1         0.7887212854E-03      0.7821654159E-02
          0                 6           1            44   33     1       0.6503104855E-05      44   33    1         0.6100525932E-03      0.6593473193E-02

    ------------------------------------------------
       NWT REQUIRED            6 OUTER ITERATIONS 
       AND A TOTAL OF          6 INNER ITERATIONS.
    ------------------------------------------------

 OUTPUT CONTROL FOR STRESS PERIOD    1   TIME STEP  831
    SAVE HEAD FOR ALL LAYERS
 SOLVING FOR ZETA FOR LAYER     1 ZONE     2

     600 UPPER PART EQS.       604 LOWER PART EQS.    BAND WIDTH + 1 =   27
 STRESS PERIOD=  1 TIMESTEP=831 LAYER=  1 ZONE=  2 ACTIVE CELLS= 1204 NUMBER OF EQUATIONS=    1204
 SOLVING FOR ZETA FOR LAYER     2 ZONE     2

     613 UPPER PART EQS.       618 LOWER PART EQS.    BAND WIDTH + 1 =   34
 STRESS PERIOD=  1 TIMESTEP=831 LAYER=  2 ZONE=  2 ACTIVE CELLS= 1231 NUMBER OF EQUATIONS=    1231
 UBUDSV SAVING "      ZETASRF  1" ON UNIT 55 AT TIME STEP831, STRESS PERIOD    1

 HEAD WILL BE SAVED ON UNIT   51 AT END OF TIME STEP  831, STRESS PERIOD    1
 
 SOLVING FOR HEAD 
                                                   Max.-Head-Change                         Max.-Flux-Residual
  Residual-Control   Outer-Iter.   Inner-Iter.     Column Row Layer    Maximum-Head-Change  Column Row Layer    Maximum-Flux-Residual          L2-NORM 
          0                 1           1            48   32     1      -0.7475511271E-03      26   49    1         0.5518619526E+00      0.3941799811E+01
          0                 2           1            44   33     1      -0.5692137228E-04      32   49    1        -0.1560937144E-01      0.9340413713E-01
          0                 3           1            43   31     2      -0.2724993400E-04      46   31    1        -0.2332544368E-02      0.1878035930E-01
          0                 4           1            19   31     2      -0.1170678919E-04      44   33    1        -0.1014599420E-02      0.1081279745E-01
          0                 5           1            17   32     1      -0.1016068996E-04      46   31    1        -0.7353243259E-03      0.8475379450E-02
          0                 6           1            19   30     1      -0.7053613205E-05      44   33    1        -0.5635183604E-03      0.7350435183E-02

    ------------------------------------------------
       NWT REQUIRED            6 OUTER ITERATIONS 
       AND A TOTAL OF          6 INNER ITERATIONS.
    ------------------------------------------------

 OUTPUT CONTROL FOR STRESS PERIOD    1   TIME STEP  832
    SAVE HEAD FOR ALL LAYERS
 SOLVING FOR ZETA FOR LAYER     1 ZONE     2

     592 UPPER PART EQS.       594 LOWER PART EQS.    BAND WIDTH + 1 =   27
 STRESS PERIOD=  1 TIMESTEP=832 LAYER=  1 ZONE=  2 ACTIVE CELLS= 1186 NUMBER OF EQUATIONS=    1186
 SOLVING FOR ZETA FOR LAYER     2 ZONE     2

     613 UPPER PART EQS.       620 LOWER PART EQS.    BAND WIDTH + 1 =   34
 STRESS PERIOD=  1 TIMESTEP=832 LAYER=  2 ZONE=  2 ACTIVE CELLS= 1233 NUMBER OF EQUATIONS=    1233
 UBUDSV SAVING "      ZETASRF  1" ON UNIT 55 AT TIME STEP832, STRESS PERIOD    1

 HEAD WILL BE SAVED ON UNIT   51 AT END OF TIME STEP  832, STRESS PERIOD    1
 
 SOLVING FOR HEAD 
                                                   Max.-Head-Change                         Max.-Flux-Residual
  Residual-Control   Outer-Iter.   Inner-Iter.     Column Row Layer    Maximum-Head-Change  Column Row Layer    Maximum-Flux-Residual          L2-NORM 
          0                 1           1            48   32     1       0.7647835517E-03      26   48    1         0.5346704955E+00      0.3788240978E+01
          0                 2           1            44   31     1       0.7533650166E-04      45   32    1         0.1570325436E-01      0.1003652122E+00
          0                 3           1            42   32     2       0.4245695405E-04      47   30    1         0.3358041136E-02      0.2838926006E-01
          0                 4           1            44   33     1       0.1794184975E-04      44   33    1         0.1618744478E-02      0.1724756295E-01
          0                 5           1            42   32     2       0.1975114213E-04      47   30    1         0.1217578786E-02      0.1379600283E-01
          0                 6           1            44   33     1       0.1109035800E-04      44   33    1         0.9695426127E-03      0.1198971263E-01
          0                 7           1            41   31     2       0.1436243291E-04      47   30    1         0.7510030781E-03      0.1050658510E-01
          0                 8           1            38   32     2       0.8245153723E-05      44   33    1         0.7197393592E-03      0.9548128982E-02

    ------------------------------------------------
       NWT REQUIRED            8 OUTER ITERATIONS 
       AND A TOTAL OF          8 INNER ITERATIONS.
    ------------------------------------------------

 OUTPUT CONTROL FOR STRESS PERIOD    1   TIME STEP  833
    SAVE HEAD FOR ALL LAYERS
 SOLVING FOR ZETA FOR LAYER     1 ZONE     2

     612 UPPER PART EQS.       604 LOWER PART EQS.    BAND WIDTH + 1 =   28
 STRESS PERIOD=  1 TIMESTEP=833 LAYER=  1 ZONE=  2 ACTIVE CELLS= 1216 NUMBER OF EQUATIONS=    1216
 SOLVING FOR ZETA FOR LAYER     2 ZONE     2

     613 UPPER PART EQS.       619 LOWER PART EQS.    BAND WIDTH + 1 =   34
 STRESS PERIOD=  1 TIMESTEP=833 LAYER=  2 ZONE=  2 ACTIVE CELLS= 1232 NUMBER OF EQUATIONS=    1232
 UBUDSV SAVING "      ZETASRF  1" ON UNIT 55 AT TIME STEP833, STRESS PERIOD    1

 HEAD WILL BE SAVED ON UNIT   51 AT END OF TIME STEP  833, STRESS PERIOD    1
 
 SOLVING FOR HEAD 
                                                   Max.-Head-Change                         Max.-Flux-Residual
  Residual-Control   Outer-Iter.   Inner-Iter.     Column Row Layer    Maximum-Head-Change  Column Row Layer    Maximum-Flux-Residual          L2-NORM 
          0                 1           1            48   31     1      -0.7292351915E-03      13   35    1         0.4690237410E+00      0.3348945243E+01
          0                 2           1            44   33     1      -0.6881668946E-04      10   31    1         0.1502304139E-01      0.8842593526E-01
          0                 3           1            43   31     2      -0.3761531043E-04      47   30    1        -0.3002767361E-02      0.2491016510E-01
          0                 4           1            44   33     1      -0.1508417426E-04      44   33    1        -0.1493305021E-02      0.1326084023E-01
          0                 5           1            42   32     2      -0.1258786886E-04      47   30    1        -0.1031644148E-02      0.8632780314E-02
          0                 6           1            44   33     1      -0.7353056522E-05      44   33    1        -0.7181430358E-03      0.6152553661E-02

    ------------------------------------------------
       NWT REQUIRED            6 OUTER ITERATIONS 
       AND A TOTAL OF          6 INNER ITERATIONS.
    ------------------------------------------------

 OUTPUT CONTROL FOR STRESS PERIOD    1   TIME STEP  834
    SAVE HEAD FOR ALL LAYERS
 SOLVING FOR ZETA FOR LAYER     1 ZONE     2

     612 UPPER PART EQS.       598 LOWER PART EQS.    BAND WIDTH + 1 =   33
 STRESS PERIOD=  1 TIMESTEP=834 LAYER=  1 ZONE=  2 ACTIVE CELLS= 1210 NUMBER OF EQUATIONS=    1210
 SOLVING FOR ZETA FOR LAYER     2 ZONE     2

     613 UPPER PART EQS.       619 LOWER PART EQS.    BAND WIDTH + 1 =   34
 STRESS PERIOD=  1 TIMESTEP=834 LAYER=  2 ZONE=  2 ACTIVE CELLS= 1232 NUMBER OF EQUATIONS=    1232
 UBUDSV SAVING "      ZETASRF  1" ON UNIT 55 AT TIME STEP834, STRESS PERIOD    1

 HEAD WILL BE SAVED ON UNIT   51 AT END OF TIME STEP  834, STRESS PERIOD    1
 
 SOLVING FOR HEAD 
                                                   Max.-Head-Change                         Max.-Flux-Residual
  Residual-Control   Outer-Iter.   Inner-Iter.     Column Row Layer    Maximum-Head-Change  Column Row Layer    Maximum-Flux-Residual          L2-NORM 
          0                 1           1            34   49     1       0.7407375147E-03      35   48    1        -0.4660355330E+00      0.3628128803E+01
          0                 2           1            45   32     1       0.5317033664E-04      31   14    1         0.1460668396E-01      0.8787677935E-01
          0                 3           1            43   31     2       0.2754364789E-04      46   31    1         0.2259699765E-02      0.2041669439E-01
          0                 4           1            44   33     1       0.1120601943E-04      44   33    1         0.1131441317E-02      0.1072293383E-01
          0                 5           1            46   31     1       0.7812476478E-05      47   30    1         0.7216401918E-03      0.6654795103E-02

    ------------------------------------------------
       NWT REQUIRED            5 OUTER ITERATIONS 
       AND A TOTAL OF          5 INNER ITERATIONS.
    ------------------------------------------------

 OUTPUT CONTROL FOR STRESS PERIOD    1   TIME STEP  835
    SAVE HEAD FOR ALL LAYERS
 SOLVING FOR ZETA FOR LAYER     1 ZONE     2

     598 UPPER PART EQS.       598 LOWER PART EQS.    BAND WIDTH + 1 =   26
 STRESS PERIOD=  1 TIMESTEP=835 LAYER=  1 ZONE=  2 ACTIVE CELLS= 1196 NUMBER OF EQUATIONS=    1196
 SOLVING FOR ZETA FOR LAYER     2 ZONE     2

     613 UPPER PART EQS.       620 LOWER PART EQS.    BAND WIDTH + 1 =   34
 STRESS PERIOD=  1 TIMESTEP=835 LAYER=  2 ZONE=  2 ACTIVE CELLS= 1233 NUMBER OF EQUATIONS=    1233
 UBUDSV SAVING "      ZETASRF  1" ON UNIT 55 AT TIME STEP835, STRESS PERIOD    1

 HEAD WILL BE SAVED ON UNIT   51 AT END OF TIME STEP  835, STRESS PERIOD    1
 
 SOLVING FOR HEAD 
                                                   Max.-Head-Change                         Max.-Flux-Residual
  Residual-Control   Outer-Iter.   Inner-Iter.     Column Row Layer    Maximum-Head-Change  Column Row Layer    Maximum-Flux-Residual          L2-NORM 
          0                 1           1            48   31     1      -0.6866267165E-03      36   48    1        -0.5472382873E+00      0.3741221678E+01
          0                 2           1            45   32     1      -0.3822780773E-04      31   14    1        -0.1421198722E-01      0.7616020295E-01
          0                 3           1            43   31     2      -0.1446203127E-04      47   30    1        -0.1587436805E-02      0.1225432219E-01
          0                 4           1            44   33     1      -0.6807548141E-05      44   33    1        -0.7005403626E-03      0.5759665649E-02

    ------------------------------------------------
       NWT REQUIRED            4 OUTER ITERATIONS 
       AND A TOTAL OF          4 INNER ITERATIONS.
    ------------------------------------------------

 OUTPUT CONTROL FOR STRESS PERIOD    1   TIME STEP  836
    SAVE HEAD FOR ALL LAYERS
 SOLVING FOR ZETA FOR LAYER     1 ZONE     2

     602 UPPER PART EQS.       604 LOWER PART EQS.    BAND WIDTH + 1 =   25
 STRESS PERIOD=  1 TIMESTEP=836 LAYER=  1 ZONE=  2 ACTIVE CELLS= 1206 NUMBER OF EQUATIONS=    1206
 SOLVING FOR ZETA FOR LAYER     2 ZONE     2

     613 UPPER PART EQS.       620 LOWER PART EQS.    BAND WIDTH + 1 =   34
 STRESS PERIOD=  1 TIMESTEP=836 LAYER=  2 ZONE=  2 ACTIVE CELLS= 1233 NUMBER OF EQUATIONS=    1233
 UBUDSV SAVING "      ZETASRF  1" ON UNIT 55 AT TIME STEP836, STRESS PERIOD    1

 HEAD WILL BE SAVED ON UNIT   51 AT END OF TIME STEP  836, STRESS PERIOD    1
 
 SOLVING FOR HEAD 
                                                   Max.-Head-Change                         Max.-Flux-Residual
  Residual-Control   Outer-Iter.   Inner-Iter.     Column Row Layer    Maximum-Head-Change  Column Row Layer    Maximum-Flux-Residual          L2-NORM 
          0                 1           1            48   26     1      -0.7784996878E-03      14   36    1        -0.5462307062E+00      0.3741115402E+01
          0                 2           1            45   32     1       0.3306727229E-04      45   32    1         0.1298325632E-01      0.8582854011E-01
          0                 3           1            17   32     1       0.8014862593E-05      47   30    1         0.1341427126E-02      0.1034894610E-01

    ------------------------------------------------
       NWT REQUIRED            3 OUTER ITERATIONS 
       AND A TOTAL OF          3 INNER ITERATIONS.
    ------------------------------------------------

 OUTPUT CONTROL FOR STRESS PERIOD    1   TIME STEP  837
    SAVE HEAD FOR ALL LAYERS
 SOLVING FOR ZETA FOR LAYER     1 ZONE     2

     594 UPPER PART EQS.       604 LOWER PART EQS.    BAND WIDTH + 1 =   33
 STRESS PERIOD=  1 TIMESTEP=837 LAYER=  1 ZONE=  2 ACTIVE CELLS= 1198 NUMBER OF EQUATIONS=    1198
 SOLVING FOR ZETA FOR LAYER     2 ZONE     2

     613 UPPER PART EQS.       620 LOWER PART EQS.    BAND WIDTH + 1 =   34
 STRESS PERIOD=  1 TIMESTEP=837 LAYER=  2 ZONE=  2 ACTIVE CELLS= 1233 NUMBER OF EQUATIONS=    1233
 UBUDSV SAVING "      ZETASRF  1" ON UNIT 55 AT TIME STEP837, STRESS PERIOD    1

 HEAD WILL BE SAVED ON UNIT   51 AT END OF TIME STEP  837, STRESS PERIOD    1
 
 SOLVING FOR HEAD 
                                                   Max.-Head-Change                         Max.-Flux-Residual
  Residual-Control   Outer-Iter.   Inner-Iter.     Column Row Layer    Maximum-Head-Change  Column Row Layer    Maximum-Flux-Residual          L2-NORM 
          0                 1           1            48   32     1      -0.7368208975E-03      14   26    1         0.5311140443E+00      0.3958898874E+01
          0                 2           1            44   33     1      -0.4752446587E-04      32   49    1        -0.1576728878E-01      0.9678601227E-01
          0                 3           1            43   31     2      -0.1784105933E-04      46   31    1        -0.1970747893E-02      0.1468975077E-01
          0                 4           1            43   32     1      -0.8562659527E-05      16   33    1        -0.8591771560E-03      0.7394166360E-02

    ------------------------------------------------
       NWT REQUIRED            4 OUTER ITERATIONS 
       AND A TOTAL OF          4 INNER ITERATIONS.
    ------------------------------------------------

 OUTPUT CONTROL FOR STRESS PERIOD    1   TIME STEP  838
    SAVE HEAD FOR ALL LAYERS
 SOLVING FOR ZETA FOR LAYER     1 ZONE     2

     592 UPPER PART EQS.       592 LOWER PART EQS.    BAND WIDTH + 1 =   26
 STRESS PERIOD=  1 TIMESTEP=838 LAYER=  1 ZONE=  2 ACTIVE CELLS= 1184 NUMBER OF EQUATIONS=    1184
 SOLVING FOR ZETA FOR LAYER     2 ZONE     2

     613 UPPER PART EQS.       622 LOWER PART EQS.    BAND WIDTH + 1 =   34
 STRESS PERIOD=  1 TIMESTEP=838 LAYER=  2 ZONE=  2 ACTIVE CELLS= 1235 NUMBER OF EQUATIONS=    1235
 UBUDSV SAVING "      ZETASRF  1" ON UNIT 55 AT TIME STEP838, STRESS PERIOD    1

 HEAD WILL BE SAVED ON UNIT   51 AT END OF TIME STEP  838, STRESS PERIOD    1
 
 SOLVING FOR HEAD 
                                                   Max.-Head-Change                         Max.-Flux-Residual
  Residual-Control   Outer-Iter.   Inner-Iter.     Column Row Layer    Maximum-Head-Change  Column Row Layer    Maximum-Flux-Residual          L2-NORM 
          0                 1           1            26   49     1       0.8083729254E-03      26   48    1        -0.5471076232E+00      0.3728354924E+01
          0                 2           1            44   31     1       0.7480540951E-04      45   32    1         0.1560088660E-01      0.1090129568E+00
          0                 3           1            42   32     2       0.4162873859E-04      47   30    1         0.3338179262E-02      0.2884592349E-01
          0                 4           1            44   33     1       0.1827261623E-04      44   33    1         0.1619569235E-02      0.1635458252E-01
          0                 5           1            42   32     2       0.1800484453E-04      47   30    1         0.1263509217E-02      0.1214746506E-01
          0                 6           1            44   33     1       0.1063380710E-04      44   33    1         0.9001070541E-03      0.1000537953E-01
          0                 7           1            41   31     2       0.1256737319E-04      47   30    1         0.7158909981E-03      0.8526993791E-02
          0                 8           1            38   32     2       0.7243314564E-05      44   33    1         0.6101955976E-03      0.7612214290E-02

    ------------------------------------------------
       NWT REQUIRED            8 OUTER ITERATIONS 
       AND A TOTAL OF          8 INNER ITERATIONS.
    ------------------------------------------------

 OUTPUT CONTROL FOR STRESS PERIOD    1   TIME STEP  839
    SAVE HEAD FOR ALL LAYERS
 SOLVING FOR ZETA FOR LAYER     1 ZONE     2

     610 UPPER PART EQS.       604 LOWER PART EQS.    BAND WIDTH + 1 =   26
 STRESS PERIOD=  1 TIMESTEP=839 LAYER=  1 ZONE=  2 ACTIVE CELLS= 1214 NUMBER OF EQUATIONS=    1214
 SOLVING FOR ZETA FOR LAYER     2 ZONE     2

     613 UPPER PART EQS.       622 LOWER PART EQS.    BAND WIDTH + 1 =   34
 STRESS PERIOD=  1 TIMESTEP=839 LAYER=  2 ZONE=  2 ACTIVE CELLS= 1235 NUMBER OF EQUATIONS=    1235
 UBUDSV SAVING "      ZETASRF  1" ON UNIT 55 AT TIME STEP839, STRESS PERIOD    1

 HEAD WILL BE SAVED ON UNIT   51 AT END OF TIME STEP  839, STRESS PERIOD    1
 
 SOLVING FOR HEAD 
                                                   Max.-Head-Change                         Max.-Flux-Residual
  Residual-Control   Outer-Iter.   Inner-Iter.     Column Row Layer    Maximum-Head-Change  Column Row Layer    Maximum-Flux-Residual          L2-NORM 
          0                 1           1            26   48     1       0.7406314529E-03      26   48    1         0.5323362818E+00      0.3464780392E+01
          0                 2           1            44   33     1      -0.6893619816E-04      45   32    1        -0.1464077782E-01      0.9637770641E-01
          0                 3           1            43   31     2      -0.3839837057E-04      47   30    1        -0.3027562397E-02      0.2719252801E-01
          0                 4           1            44   33     1      -0.1536958145E-04      44   33    1        -0.1535311298E-02      0.1429286049E-01
          0                 5           1            42   32     2      -0.1291685623E-04      47   30    1        -0.1050030342E-02      0.9068139360E-02
          0                 6           1            44   33     1      -0.7422824104E-05      44   33    1        -0.7321994171E-03      0.6246504911E-02

    ------------------------------------------------
       NWT REQUIRED            6 OUTER ITERATIONS 
       AND A TOTAL OF          6 INNER ITERATIONS.
    ------------------------------------------------

 OUTPUT CONTROL FOR STRESS PERIOD    1   TIME STEP  840
    SAVE HEAD FOR ALL LAYERS
 SOLVING FOR ZETA FOR LAYER     1 ZONE     2

     606 UPPER PART EQS.       602 LOWER PART EQS.    BAND WIDTH + 1 =   27
 STRESS PERIOD=  1 TIMESTEP=840 LAYER=  1 ZONE=  2 ACTIVE CELLS= 1208 NUMBER OF EQUATIONS=    1208
 SOLVING FOR ZETA FOR LAYER     2 ZONE     2

     613 UPPER PART EQS.       622 LOWER PART EQS.    BAND WIDTH + 1 =   34
 STRESS PERIOD=  1 TIMESTEP=840 LAYER=  2 ZONE=  2 ACTIVE CELLS= 1235 NUMBER OF EQUATIONS=    1235
 UBUDSV SAVING "      ZETASRF  1" ON UNIT 55 AT TIME STEP840, STRESS PERIOD    1

 HEAD WILL BE SAVED ON UNIT   51 AT END OF TIME STEP  840, STRESS PERIOD    1
 
 SOLVING FOR HEAD 
                                                   Max.-Head-Change                         Max.-Flux-Residual
  Residual-Control   Outer-Iter.   Inner-Iter.     Column Row Layer    Maximum-Head-Change  Column Row Layer    Maximum-Flux-Residual          L2-NORM 
          0                 1           1            34   49     1       0.7371299370E-03      35   48    1        -0.4641069696E+00      0.3856275876E+01
          0                 2           1            44   33     1       0.5282480620E-04      31   14    1         0.1458500041E-01      0.9002634561E-01
          0                 3           1            43   31     2       0.2600382950E-04      46   31    1         0.2268219007E-02      0.2082790022E-01
          0                 4           1            44   33     1       0.1063678894E-04      44   33    1         0.1125368007E-02      0.1055150683E-01
          0                 5           1            46   31     1       0.7130250398E-05      46   31    1         0.6875139797E-03      0.6472990854E-02

    ------------------------------------------------
       NWT REQUIRED            5 OUTER ITERATIONS 
       AND A TOTAL OF          5 INNER ITERATIONS.
    ------------------------------------------------

 OUTPUT CONTROL FOR STRESS PERIOD    1   TIME STEP  841
    SAVE HEAD FOR ALL LAYERS
 SOLVING FOR ZETA FOR LAYER     1 ZONE     2

     592 UPPER PART EQS.       608 LOWER PART EQS.    BAND WIDTH + 1 =   36
 STRESS PERIOD=  1 TIMESTEP=841 LAYER=  1 ZONE=  2 ACTIVE CELLS= 1200 NUMBER OF EQUATIONS=    1200
 SOLVING FOR ZETA FOR LAYER     2 ZONE     2

     613 UPPER PART EQS.       624 LOWER PART EQS.    BAND WIDTH + 1 =   34
 STRESS PERIOD=  1 TIMESTEP=841 LAYER=  2 ZONE=  2 ACTIVE CELLS= 1237 NUMBER OF EQUATIONS=    1237
 UBUDSV SAVING "      ZETASRF  1" ON UNIT 55 AT TIME STEP841, STRESS PERIOD    1

 HEAD WILL BE SAVED ON UNIT   51 AT END OF TIME STEP  841, STRESS PERIOD    1
 
 SOLVING FOR HEAD 
                                                   Max.-Head-Change                         Max.-Flux-Residual
  Residual-Control   Outer-Iter.   Inner-Iter.     Column Row Layer    Maximum-Head-Change  Column Row Layer    Maximum-Flux-Residual          L2-NORM 
          0                 1           1            34   14     1       0.7202565454E-03      27   49    1         0.4690395978E+00      0.3568118446E+01
          0                 2           1            45   32     1      -0.3885496713E-04      31   14    1        -0.1448071123E-01      0.8185258358E-01
          0                 3           1            35   46     1       0.1917494217E-04      46   31    1        -0.1702673508E-02      0.1742775381E-01
          0                 4           1            34   42     2       0.8876981568E-05      44   33    1        -0.7528484669E-03      0.8762266856E-02

    ------------------------------------------------
       NWT REQUIRED            4 OUTER ITERATIONS 
       AND A TOTAL OF          4 INNER ITERATIONS.
    ------------------------------------------------

 OUTPUT CONTROL FOR STRESS PERIOD    1   TIME STEP  842
    SAVE HEAD FOR ALL LAYERS
 SOLVING FOR ZETA FOR LAYER     1 ZONE     2

     612 UPPER PART EQS.       612 LOWER PART EQS.    BAND WIDTH + 1 =   25
 STRESS PERIOD=  1 TIMESTEP=842 LAYER=  1 ZONE=  2 ACTIVE CELLS= 1224 NUMBER OF EQUATIONS=    1224
 SOLVING FOR ZETA FOR LAYER     2 ZONE     2

     613 UPPER PART EQS.       624 LOWER PART EQS.    BAND WIDTH + 1 =   34
 STRESS PERIOD=  1 TIMESTEP=842 LAYER=  2 ZONE=  2 ACTIVE CELLS= 1237 NUMBER OF EQUATIONS=    1237
 UBUDSV SAVING "      ZETASRF  1" ON UNIT 55 AT TIME STEP842, STRESS PERIOD    1

 HEAD WILL BE SAVED ON UNIT   51 AT END OF TIME STEP  842, STRESS PERIOD    1
 
 SOLVING FOR HEAD 
                                                   Max.-Head-Change                         Max.-Flux-Residual
  Residual-Control   Outer-Iter.   Inner-Iter.     Column Row Layer    Maximum-Head-Change  Column Row Layer    Maximum-Flux-Residual          L2-NORM 
          0                 1           1            48   26     1      -0.7738077899E-03      36   49    1         0.5476217870E+00      0.3658898494E+01
          0                 2           1            45   32     1       0.3395622507E-04      45   32    1         0.1298503854E-01      0.8709116695E-01
          0                 3           1            36   45     1      -0.1034807974E-04      47   30    1         0.1464871219E-02      0.1258883844E-01
          0                 4           1            38   42     2      -0.5376210001E-05      44   33    1         0.4513964935E-03      0.5128444966E-02

    ------------------------------------------------
       NWT REQUIRED            4 OUTER ITERATIONS 
       AND A TOTAL OF          4 INNER ITERATIONS.
    ------------------------------------------------

 OUTPUT CONTROL FOR STRESS PERIOD    1   TIME STEP  843
    SAVE HEAD FOR ALL LAYERS
 SOLVING FOR ZETA FOR LAYER     1 ZONE     2

     596 UPPER PART EQS.       612 LOWER PART EQS.    BAND WIDTH + 1 =   38
 STRESS PERIOD=  1 TIMESTEP=843 LAYER=  1 ZONE=  2 ACTIVE CELLS= 1208 NUMBER OF EQUATIONS=    1208
 SOLVING FOR ZETA FOR LAYER     2 ZONE     2

     613 UPPER PART EQS.       624 LOWER PART EQS.    BAND WIDTH + 1 =   34
 STRESS PERIOD=  1 TIMESTEP=843 LAYER=  2 ZONE=  2 ACTIVE CELLS= 1237 NUMBER OF EQUATIONS=    1237
 UBUDSV SAVING "      ZETASRF  1" ON UNIT 55 AT TIME STEP843, STRESS PERIOD    1

 HEAD WILL BE SAVED ON UNIT   51 AT END OF TIME STEP  843, STRESS PERIOD    1
 
 SOLVING FOR HEAD 
                                                   Max.-Head-Change                         Max.-Flux-Residual
  Residual-Control   Outer-Iter.   Inner-Iter.     Column Row Layer    Maximum-Head-Change  Column Row Layer    Maximum-Flux-Residual          L2-NORM 
          0                 1           1            48   32     1      -0.7342429166E-03      36   48    1         0.5290520089E+00      0.4236638223E+01
          0                 2           1            44   33     1      -0.4836449111E-04      45   32    1        -0.1432624983E-01      0.9732630057E-01
          0                 3           1            43   31     2      -0.1953601550E-04      46   31    1        -0.2023944613E-02      0.1537992533E-01
          0                 4           1            43   30     1      -0.8649809599E-05      45   28    1        -0.8783195511E-03      0.7650019627E-02

    ------------------------------------------------
       NWT REQUIRED            4 OUTER ITERATIONS 
       AND A TOTAL OF          4 INNER ITERATIONS.
    ------------------------------------------------

 OUTPUT CONTROL FOR STRESS PERIOD    1   TIME STEP  844
    SAVE HEAD FOR ALL LAYERS
 SOLVING FOR ZETA FOR LAYER     1 ZONE     2

     600 UPPER PART EQS.       598 LOWER PART EQS.    BAND WIDTH + 1 =   25
 STRESS PERIOD=  1 TIMESTEP=844 LAYER=  1 ZONE=  2 ACTIVE CELLS= 1198 NUMBER OF EQUATIONS=    1198
 SOLVING FOR ZETA FOR LAYER     2 ZONE     2

     613 UPPER PART EQS.       624 LOWER PART EQS.    BAND WIDTH + 1 =   34
 STRESS PERIOD=  1 TIMESTEP=844 LAYER=  2 ZONE=  2 ACTIVE CELLS= 1237 NUMBER OF EQUATIONS=    1237
 UBUDSV SAVING "      ZETASRF  1" ON UNIT 55 AT TIME STEP844, STRESS PERIOD    1

 HEAD WILL BE SAVED ON UNIT   51 AT END OF TIME STEP  844, STRESS PERIOD    1
 
 SOLVING FOR HEAD 
                                                   Max.-Head-Change                         Max.-Flux-Residual
  Residual-Control   Outer-Iter.   Inner-Iter.     Column Row Layer    Maximum-Head-Change  Column Row Layer    Maximum-Flux-Residual          L2-NORM 
          0                 1           1            26   49     1       0.7974867118E-03      26   48    1        -0.5436130481E+00      0.3417087801E+01
          0                 2           1            44   31     1       0.7441889905E-04      45   32    1         0.1551883114E-01      0.1086157043E+00
          0                 3           1            42   32     2       0.4134937128E-04      47   30    1         0.3312548987E-02      0.2854422280E-01
          0                 4           1            44   33     1       0.1844839337E-04      44   33    1         0.1603629320E-02      0.1652123449E-01
          0                 5           1            42   32     2       0.1830468805E-04      47   30    1         0.1217083168E-02      0.1260610135E-01
          0                 6           1            44   33     1       0.1100349804E-04      44   33    1         0.9054350843E-03      0.1059863959E-01
          0                 7           1            41   31     2       0.1297381397E-04      47   30    1         0.7139224569E-03      0.9158956477E-02
          0                 8           1            38   32     2       0.7735526612E-05      44   33    1         0.6336914832E-03      0.8246022521E-02

    ------------------------------------------------
       NWT REQUIRED            8 OUTER ITERATIONS 
       AND A TOTAL OF          8 INNER ITERATIONS.
    ------------------------------------------------

 OUTPUT CONTROL FOR STRESS PERIOD    1   TIME STEP  845
    SAVE HEAD FOR ALL LAYERS
 SOLVING FOR ZETA FOR LAYER     1 ZONE     2

     604 UPPER PART EQS.       606 LOWER PART EQS.    BAND WIDTH + 1 =   26
 STRESS PERIOD=  1 TIMESTEP=845 LAYER=  1 ZONE=  2 ACTIVE CELLS= 1210 NUMBER OF EQUATIONS=    1210
 SOLVING FOR ZETA FOR LAYER     2 ZONE     2

     613 UPPER PART EQS.       624 LOWER PART EQS.    BAND WIDTH + 1 =   34
 STRESS PERIOD=  1 TIMESTEP=845 LAYER=  2 ZONE=  2 ACTIVE CELLS= 1237 NUMBER OF EQUATIONS=    1237
 UBUDSV SAVING "      ZETASRF  1" ON UNIT 55 AT TIME STEP845, STRESS PERIOD    1

 HEAD WILL BE SAVED ON UNIT   51 AT END OF TIME STEP  845, STRESS PERIOD    1
 
 SOLVING FOR HEAD 
                                                   Max.-Head-Change                         Max.-Flux-Residual
  Residual-Control   Outer-Iter.   Inner-Iter.     Column Row Layer    Maximum-Head-Change  Column Row Layer    Maximum-Flux-Residual          L2-NORM 
          0                 1           1            26   14     1       0.7381132228E-03      26   48    1         0.5301459720E+00      0.3481967172E+01
          0                 2           1            44   33     1      -0.6779232515E-04      45   32    1        -0.1454483813E-01      0.9415271001E-01
          0                 3           1            43   31     2      -0.3975780840E-04      47   30    1        -0.2946561538E-02      0.2632883600E-01
          0                 4           1            44   33     1      -0.1543752315E-04      44   33    1        -0.1512133410E-02      0.1436004856E-01
          0                 5           1            42   32     2      -0.1356398115E-04      47   30    1        -0.1066400778E-02      0.9418458631E-02
          0                 6           1            44   33     1      -0.7857853221E-05      44   33    1        -0.7535004515E-03      0.6761132834E-02

    ------------------------------------------------
       NWT REQUIRED            6 OUTER ITERATIONS 
       AND A TOTAL OF          6 INNER ITERATIONS.
    ------------------------------------------------

 OUTPUT CONTROL FOR STRESS PERIOD    1   TIME STEP  846
    SAVE HEAD FOR ALL LAYERS
 SOLVING FOR ZETA FOR LAYER     1 ZONE     2

     596 UPPER PART EQS.       601 LOWER PART EQS.    BAND WIDTH + 1 =   26
 STRESS PERIOD=  1 TIMESTEP=846 LAYER=  1 ZONE=  2 ACTIVE CELLS= 1197 NUMBER OF EQUATIONS=    1197
 SOLVING FOR ZETA FOR LAYER     2 ZONE     2

     613 UPPER PART EQS.       624 LOWER PART EQS.    BAND WIDTH + 1 =   34
 STRESS PERIOD=  1 TIMESTEP=846 LAYER=  2 ZONE=  2 ACTIVE CELLS= 1237 NUMBER OF EQUATIONS=    1237
 UBUDSV SAVING "      ZETASRF  1" ON UNIT 55 AT TIME STEP846, STRESS PERIOD    1

 HEAD WILL BE SAVED ON UNIT   51 AT END OF TIME STEP  846, STRESS PERIOD    1
 
 SOLVING FOR HEAD 
                                                   Max.-Head-Change                         Max.-Flux-Residual
  Residual-Control   Outer-Iter.   Inner-Iter.     Column Row Layer    Maximum-Head-Change  Column Row Layer    Maximum-Flux-Residual          L2-NORM 
          0                 1           1            34   49     1       0.7354207543E-03      35   48    1        -0.4653661484E+00      0.3751343240E+01
          0                 2           1            45   32     1       0.5335238502E-04      31   14    1         0.1448210283E-01      0.8682017635E-01
          0                 3           1            43   31     2       0.2706668879E-04      46   31    1         0.2288531108E-02      0.2051924696E-01
          0                 4           1            44   33     1       0.1130914145E-04      44   33    1         0.1136411886E-02      0.1055222771E-01
          0                 5           1            16   29     1       0.7964311406E-05      46   31    1         0.7154254276E-03      0.6674742769E-02

    ------------------------------------------------
       NWT REQUIRED            5 OUTER ITERATIONS 
       AND A TOTAL OF          5 INNER ITERATIONS.
    ------------------------------------------------

 OUTPUT CONTROL FOR STRESS PERIOD    1   TIME STEP  847
    SAVE HEAD FOR ALL LAYERS
 SOLVING FOR ZETA FOR LAYER     1 ZONE     2

     595 UPPER PART EQS.       603 LOWER PART EQS.    BAND WIDTH + 1 =   31
 STRESS PERIOD=  1 TIMESTEP=847 LAYER=  1 ZONE=  2 ACTIVE CELLS= 1198 NUMBER OF EQUATIONS=    1198
 SOLVING FOR ZETA FOR LAYER     2 ZONE     2

     613 UPPER PART EQS.       624 LOWER PART EQS.    BAND WIDTH + 1 =   34
 STRESS PERIOD=  1 TIMESTEP=847 LAYER=  2 ZONE=  2 ACTIVE CELLS= 1237 NUMBER OF EQUATIONS=    1237
 UBUDSV SAVING "      ZETASRF  1" ON UNIT 55 AT TIME STEP847, STRESS PERIOD    1

 HEAD WILL BE SAVED ON UNIT   51 AT END OF TIME STEP  847, STRESS PERIOD    1
 
 SOLVING FOR HEAD 
                                                   Max.-Head-Change                         Max.-Flux-Residual
  Residual-Control   Outer-Iter.   Inner-Iter.     Column Row Layer    Maximum-Head-Change  Column Row Layer    Maximum-Flux-Residual          L2-NORM 
          0                 1           1            34   14     1       0.7188791104E-03      27   49    1         0.4674715490E+00      0.3427834306E+01
          0                 2           1            45   32     1      -0.3879787150E-04      31   14    1        -0.1437290135E-01      0.7877920630E-01
          0                 3           1            34   45     1       0.1829737417E-04      46   31    1        -0.1672626216E-02      0.1606195066E-01
          0                 4           1            34   42     2       0.8524955875E-05      44   33    1        -0.7232705164E-03      0.7877444232E-02

    ------------------------------------------------
       NWT REQUIRED            4 OUTER ITERATIONS 
       AND A TOTAL OF          4 INNER ITERATIONS.
    ------------------------------------------------

 OUTPUT CONTROL FOR STRESS PERIOD    1   TIME STEP  848
    SAVE HEAD FOR ALL LAYERS
 SOLVING FOR ZETA FOR LAYER     1 ZONE     2

     610 UPPER PART EQS.       603 LOWER PART EQS.    BAND WIDTH + 1 =   29
 STRESS PERIOD=  1 TIMESTEP=848 LAYER=  1 ZONE=  2 ACTIVE CELLS= 1213 NUMBER OF EQUATIONS=    1213
 SOLVING FOR ZETA FOR LAYER     2 ZONE     2

     613 UPPER PART EQS.       624 LOWER PART EQS.    BAND WIDTH + 1 =   34
 STRESS PERIOD=  1 TIMESTEP=848 LAYER=  2 ZONE=  2 ACTIVE CELLS= 1237 NUMBER OF EQUATIONS=    1237
 UBUDSV SAVING "      ZETASRF  1" ON UNIT 55 AT TIME STEP848, STRESS PERIOD    1

 HEAD WILL BE SAVED ON UNIT   51 AT END OF TIME STEP  848, STRESS PERIOD    1
 
 SOLVING FOR HEAD 
                                                   Max.-Head-Change                         Max.-Flux-Residual
  Residual-Control   Outer-Iter.   Inner-Iter.     Column Row Layer    Maximum-Head-Change  Column Row Layer    Maximum-Flux-Residual          L2-NORM 
          0                 1           1            48   26     1      -0.7715929753E-03      36   14    1        -0.5415374865E+00      0.3739596310E+01
          0                 2           1            45   32     1       0.3340033768E-04      45   32    1         0.1289733184E-01      0.8682117566E-01
          0                 3           1            36   45     1      -0.1069179442E-04      47   30    1         0.1418308175E-02      0.1258591604E-01
          0                 4           1            38   42     2      -0.5786691173E-05      38   42    2        -0.4392697570E-03      0.5267061960E-02

    ------------------------------------------------
       NWT REQUIRED            4 OUTER ITERATIONS 
       AND A TOTAL OF          4 INNER ITERATIONS.
    ------------------------------------------------

 OUTPUT CONTROL FOR STRESS PERIOD    1   TIME STEP  849
    SAVE HEAD FOR ALL LAYERS
 SOLVING FOR ZETA FOR LAYER     1 ZONE     2

     601 UPPER PART EQS.       605 LOWER PART EQS.    BAND WIDTH + 1 =   32
 STRESS PERIOD=  1 TIMESTEP=849 LAYER=  1 ZONE=  2 ACTIVE CELLS= 1206 NUMBER OF EQUATIONS=    1206
 SOLVING FOR ZETA FOR LAYER     2 ZONE     2

     613 UPPER PART EQS.       624 LOWER PART EQS.    BAND WIDTH + 1 =   34
 STRESS PERIOD=  1 TIMESTEP=849 LAYER=  2 ZONE=  2 ACTIVE CELLS= 1237 NUMBER OF EQUATIONS=    1237
 UBUDSV SAVING "      ZETASRF  1" ON UNIT 55 AT TIME STEP849, STRESS PERIOD    1

 HEAD WILL BE SAVED ON UNIT   51 AT END OF TIME STEP  849, STRESS PERIOD    1
 
 SOLVING FOR HEAD 
                                                   Max.-Head-Change                         Max.-Flux-Residual
  Residual-Control   Outer-Iter.   Inner-Iter.     Column Row Layer    Maximum-Head-Change  Column Row Layer    Maximum-Flux-Residual          L2-NORM 
          0                 1           1            48   32     1      -0.7302739674E-03      36   48    1         0.5276078824E+00      0.4143929430E+01
          0                 2           1            44   33     1      -0.4816959105E-04      45   32    1        -0.1425827860E-01      0.9543021310E-01
          0                 3           1            43   31     2      -0.1981192140E-04      46   31    1        -0.2012270980E-02      0.1507037806E-01
          0                 4           1            43   30     1      -0.8755205706E-05      45   28    1        -0.8968195400E-03      0.7352060753E-02

    ------------------------------------------------
       NWT REQUIRED            4 OUTER ITERATIONS 
       AND A TOTAL OF          4 INNER ITERATIONS.
    ------------------------------------------------

 OUTPUT CONTROL FOR STRESS PERIOD    1   TIME STEP  850
    SAVE HEAD FOR ALL LAYERS
 SOLVING FOR ZETA FOR LAYER     1 ZONE     2

     606 UPPER PART EQS.       594 LOWER PART EQS.    BAND WIDTH + 1 =   31
 STRESS PERIOD=  1 TIMESTEP=850 LAYER=  1 ZONE=  2 ACTIVE CELLS= 1200 NUMBER OF EQUATIONS=    1200
 SOLVING FOR ZETA FOR LAYER     2 ZONE     2

     613 UPPER PART EQS.       624 LOWER PART EQS.    BAND WIDTH + 1 =   34
 STRESS PERIOD=  1 TIMESTEP=850 LAYER=  2 ZONE=  2 ACTIVE CELLS= 1237 NUMBER OF EQUATIONS=    1237
 UBUDSV SAVING "      ZETASRF  1" ON UNIT 55 AT TIME STEP850, STRESS PERIOD    1

 HEAD WILL BE SAVED ON UNIT   51 AT END OF TIME STEP  850, STRESS PERIOD    1
 
 SOLVING FOR HEAD 
                                                   Max.-Head-Change                         Max.-Flux-Residual
  Residual-Control   Outer-Iter.   Inner-Iter.     Column Row Layer    Maximum-Head-Change  Column Row Layer    Maximum-Flux-Residual          L2-NORM 
          0                 1           1            26   49     1       0.7962972326E-03      26   48    1        -0.5419958944E+00      0.3440494591E+01
          0                 2           1            44   31     1       0.7405606011E-04      45   32    1         0.1542645228E-01      0.1083120417E+00
          0                 3           1            42   32     2       0.4001309213E-04      47   30    1         0.3323790081E-02      0.2807553859E-01
          0                 4           1            44   33     1       0.1766234696E-04      44   33    1         0.1581279009E-02      0.1542390611E-01
          0                 5           1            42   32     2       0.1707763602E-04      47   30    1         0.1171207978E-02      0.1120673066E-01
          0                 6           1            44   33     1       0.1010228944E-04      44   33    1         0.8522341156E-03      0.9091738130E-02
          0                 7           1            41   31     2       0.1171285586E-04      47   30    1         0.6514184885E-03      0.7649180873E-02
          0                 8           1            44   33     1       0.6636383187E-05      44   33    1         0.5650085616E-03      0.6780420105E-02

    ------------------------------------------------
       NWT REQUIRED            8 OUTER ITERATIONS 
       AND A TOTAL OF          8 INNER ITERATIONS.
    ------------------------------------------------

 OUTPUT CONTROL FOR STRESS PERIOD    1   TIME STEP  851
    SAVE HEAD FOR ALL LAYERS
 SOLVING FOR ZETA FOR LAYER     1 ZONE     2

     606 UPPER PART EQS.       606 LOWER PART EQS.    BAND WIDTH + 1 =   26
 STRESS PERIOD=  1 TIMESTEP=851 LAYER=  1 ZONE=  2 ACTIVE CELLS= 1212 NUMBER OF EQUATIONS=    1212
 SOLVING FOR ZETA FOR LAYER     2 ZONE     2

     613 UPPER PART EQS.       624 LOWER PART EQS.    BAND WIDTH + 1 =   34
 STRESS PERIOD=  1 TIMESTEP=851 LAYER=  2 ZONE=  2 ACTIVE CELLS= 1237 NUMBER OF EQUATIONS=    1237
 UBUDSV SAVING "      ZETASRF  1" ON UNIT 55 AT TIME STEP851, STRESS PERIOD    1

 HEAD WILL BE SAVED ON UNIT   51 AT END OF TIME STEP  851, STRESS PERIOD    1
 
 SOLVING FOR HEAD 
                                                   Max.-Head-Change                         Max.-Flux-Residual
  Residual-Control   Outer-Iter.   Inner-Iter.     Column Row Layer    Maximum-Head-Change  Column Row Layer    Maximum-Flux-Residual          L2-NORM 
          0                 1           1            26   48     1       0.7348196671E-03      26   48    1         0.5280298356E+00      0.3619780345E+01
          0                 2           1            44   33     1      -0.6738502479E-04      45   32    1        -0.1448697470E-01      0.9497036972E-01
          0                 3           1            43   31     2      -0.3867011284E-04      47   30    1        -0.2938579819E-02      0.2645222789E-01
          0                 4           1            44   33     1      -0.1466502427E-04      44   33    1        -0.1478560006E-02      0.1417866870E-01
          0                 5           1            42   32     2      -0.1258221459E-04      47   30    1        -0.1029825414E-02      0.9029561207E-02
          0                 6           1            44   33     1      -0.7227110321E-05      44   33    1        -0.7163169108E-03      0.6205815645E-02

    ------------------------------------------------
       NWT REQUIRED            6 OUTER ITERATIONS 
       AND A TOTAL OF          6 INNER ITERATIONS.
    ------------------------------------------------

 OUTPUT CONTROL FOR STRESS PERIOD    1   TIME STEP  852
    SAVE HEAD FOR ALL LAYERS
 SOLVING FOR ZETA FOR LAYER     1 ZONE     2

     604 UPPER PART EQS.       601 LOWER PART EQS.    BAND WIDTH + 1 =   25
 STRESS PERIOD=  1 TIMESTEP=852 LAYER=  1 ZONE=  2 ACTIVE CELLS= 1205 NUMBER OF EQUATIONS=    1205
 SOLVING FOR ZETA FOR LAYER     2 ZONE     2

     617 UPPER PART EQS.       624 LOWER PART EQS.    BAND WIDTH + 1 =   34
 STRESS PERIOD=  1 TIMESTEP=852 LAYER=  2 ZONE=  2 ACTIVE CELLS= 1241 NUMBER OF EQUATIONS=    1241
 UBUDSV SAVING "      ZETASRF  1" ON UNIT 55 AT TIME STEP852, STRESS PERIOD    1

 HEAD WILL BE SAVED ON UNIT   51 AT END OF TIME STEP  852, STRESS PERIOD    1
 
 SOLVING FOR HEAD 
                                                   Max.-Head-Change                         Max.-Flux-Residual
  Residual-Control   Outer-Iter.   Inner-Iter.     Column Row Layer    Maximum-Head-Change  Column Row Layer    Maximum-Flux-Residual          L2-NORM 
          0                 1           1            34   49     1       0.7355462053E-03      35   48    1        -0.4648319838E+00      0.3684611579E+01
          0                 2           1            45   32     1       0.5151444174E-04      31   14    1         0.1432101469E-01      0.8477213826E-01
          0                 3           1            17   32     1       0.2761417850E-04      46   31    1         0.2252276277E-02      0.1993557166E-01
          0                 4           1            19   30     1       0.1142006217E-04      44   33    1         0.1118800488E-02      0.1075083295E-01
          0                 5           1            16   29     1       0.8967337614E-05      48   33    1         0.7496177596E-03      0.7012895644E-02

    ------------------------------------------------
       NWT REQUIRED            5 OUTER ITERATIONS 
       AND A TOTAL OF          5 INNER ITERATIONS.
    ------------------------------------------------

 OUTPUT CONTROL FOR STRESS PERIOD    1   TIME STEP  853
    SAVE HEAD FOR ALL LAYERS
 SOLVING FOR ZETA FOR LAYER     1 ZONE     2

     595 UPPER PART EQS.       603 LOWER PART EQS.    BAND WIDTH + 1 =   30
 STRESS PERIOD=  1 TIMESTEP=853 LAYER=  1 ZONE=  2 ACTIVE CELLS= 1198 NUMBER OF EQUATIONS=    1198
 SOLVING FOR ZETA FOR LAYER     2 ZONE     2

     621 UPPER PART EQS.       622 LOWER PART EQS.    BAND WIDTH + 1 =   34
 STRESS PERIOD=  1 TIMESTEP=853 LAYER=  2 ZONE=  2 ACTIVE CELLS= 1243 NUMBER OF EQUATIONS=    1243
 UBUDSV SAVING "      ZETASRF  1" ON UNIT 55 AT TIME STEP853, STRESS PERIOD    1

 HEAD WILL BE SAVED ON UNIT   51 AT END OF TIME STEP  853, STRESS PERIOD    1
 
 SOLVING FOR HEAD 
                                                   Max.-Head-Change                         Max.-Flux-Residual
  Residual-Control   Outer-Iter.   Inner-Iter.     Column Row Layer    Maximum-Head-Change  Column Row Layer    Maximum-Flux-Residual          L2-NORM 
          0                 1           1            34   14     1       0.7171663367E-03      27   49    1         0.4660902181E+00      0.3529353919E+01
          0                 2           1            45   32     1      -0.3845352423E-04      31   14    1        -0.1459624349E-01      0.7930358471E-01
          0                 3           1            34   45     1       0.1774136223E-04      46   31    1        -0.1654223249E-02      0.1558185440E-01
          0                 4           1            35   43     2       0.8468296330E-05      44   33    1        -0.7052418291E-03      0.7642935787E-02

    ------------------------------------------------
       NWT REQUIRED            4 OUTER ITERATIONS 
       AND A TOTAL OF          4 INNER ITERATIONS.
    ------------------------------------------------

 OUTPUT CONTROL FOR STRESS PERIOD    1   TIME STEP  854
    SAVE HEAD FOR ALL LAYERS
 SOLVING FOR ZETA FOR LAYER     1 ZONE     2

     606 UPPER PART EQS.       607 LOWER PART EQS.    BAND WIDTH + 1 =   24
 STRESS PERIOD=  1 TIMESTEP=854 LAYER=  1 ZONE=  2 ACTIVE CELLS= 1213 NUMBER OF EQUATIONS=    1213
 SOLVING FOR ZETA FOR LAYER     2 ZONE     2

     621 UPPER PART EQS.       622 LOWER PART EQS.    BAND WIDTH + 1 =   34
 STRESS PERIOD=  1 TIMESTEP=854 LAYER=  2 ZONE=  2 ACTIVE CELLS= 1243 NUMBER OF EQUATIONS=    1243
 UBUDSV SAVING "      ZETASRF  1" ON UNIT 55 AT TIME STEP854, STRESS PERIOD    1

 HEAD WILL BE SAVED ON UNIT   51 AT END OF TIME STEP  854, STRESS PERIOD    1
 
 SOLVING FOR HEAD 
                                                   Max.-Head-Change                         Max.-Flux-Residual
  Residual-Control   Outer-Iter.   Inner-Iter.     Column Row Layer    Maximum-Head-Change  Column Row Layer    Maximum-Flux-Residual          L2-NORM 
          0                 1           1            48   26     1      -0.7688373790E-03      36   49    1         0.5407221986E+00      0.3743624727E+01
          0                 2           1            45   32     1       0.3324505722E-04      45   32    1         0.1283645640E-01      0.8756066800E-01
          0                 3           1            35   45     2      -0.1088978919E-04      47   30    1         0.1420500226E-02      0.1292067182E-01
          0                 4           1            38   42     2      -0.5795038485E-05      38   42    2        -0.5000609034E-03      0.5363949349E-02

    ------------------------------------------------
       NWT REQUIRED            4 OUTER ITERATIONS 
       AND A TOTAL OF          4 INNER ITERATIONS.
    ------------------------------------------------

 OUTPUT CONTROL FOR STRESS PERIOD    1   TIME STEP  855
    SAVE HEAD FOR ALL LAYERS
 SOLVING FOR ZETA FOR LAYER     1 ZONE     2

     597 UPPER PART EQS.       609 LOWER PART EQS.    BAND WIDTH + 1 =   36
 STRESS PERIOD=  1 TIMESTEP=855 LAYER=  1 ZONE=  2 ACTIVE CELLS= 1206 NUMBER OF EQUATIONS=    1206
 SOLVING FOR ZETA FOR LAYER     2 ZONE     2

     621 UPPER PART EQS.       622 LOWER PART EQS.    BAND WIDTH + 1 =   34
 STRESS PERIOD=  1 TIMESTEP=855 LAYER=  2 ZONE=  2 ACTIVE CELLS= 1243 NUMBER OF EQUATIONS=    1243
 UBUDSV SAVING "      ZETASRF  1" ON UNIT 55 AT TIME STEP855, STRESS PERIOD    1

 HEAD WILL BE SAVED ON UNIT   51 AT END OF TIME STEP  855, STRESS PERIOD    1
 
 SOLVING FOR HEAD 
                                                   Max.-Head-Change                         Max.-Flux-Residual
  Residual-Control   Outer-Iter.   Inner-Iter.     Column Row Layer    Maximum-Head-Change  Column Row Layer    Maximum-Flux-Residual          L2-NORM 
          0                 1           1            48   32     1      -0.7258823446E-03      36   48    1         0.5260095852E+00      0.4348611255E+01
          0                 2           1            44   33     1      -0.4799887565E-04      45   32    1        -0.1415807768E-01      0.9649492598E-01
          0                 3           1            43   31     2      -0.2018365104E-04      46   31    1        -0.2014665759E-02      0.1546140057E-01
          0                 4           1            43   30     1      -0.9396598496E-05      45   28    1        -0.9438424910E-03      0.7913965519E-02

    ------------------------------------------------
       NWT REQUIRED            4 OUTER ITERATIONS 
       AND A TOTAL OF          4 INNER ITERATIONS.
    ------------------------------------------------

 OUTPUT CONTROL FOR STRESS PERIOD    1   TIME STEP  856
    SAVE HEAD FOR ALL LAYERS
 SOLVING FOR ZETA FOR LAYER     1 ZONE     2

     602 UPPER PART EQS.       602 LOWER PART EQS.    BAND WIDTH + 1 =   24
 STRESS PERIOD=  1 TIMESTEP=856 LAYER=  1 ZONE=  2 ACTIVE CELLS= 1204 NUMBER OF EQUATIONS=    1204
 SOLVING FOR ZETA FOR LAYER     2 ZONE     2

     621 UPPER PART EQS.       620 LOWER PART EQS.    BAND WIDTH + 1 =   34
 STRESS PERIOD=  1 TIMESTEP=856 LAYER=  2 ZONE=  2 ACTIVE CELLS= 1241 NUMBER OF EQUATIONS=    1241
 UBUDSV SAVING "      ZETASRF  1" ON UNIT 55 AT TIME STEP856, STRESS PERIOD    1

 HEAD WILL BE SAVED ON UNIT   51 AT END OF TIME STEP  856, STRESS PERIOD    1
 
 SOLVING FOR HEAD 
                                                   Max.-Head-Change                         Max.-Flux-Residual
  Residual-Control   Outer-Iter.   Inner-Iter.     Column Row Layer    Maximum-Head-Change  Column Row Layer    Maximum-Flux-Residual          L2-NORM 
          0                 1           1            26   49     1       0.7956467487E-03      26   48    1        -0.5404244646E+00      0.3423332056E+01
          0                 2           1            44   31     1       0.7396643545E-04      45   32    1         0.1534097312E-01      0.1087137765E+00
          0                 3           1            42   32     2       0.4064059491E-04      47   30    1         0.3340746864E-02      0.2884513457E-01
          0                 4           1            44   33     1       0.1845729674E-04      44   33    1         0.1625604142E-02      0.1620704048E-01
          0                 5           1            42   32     2       0.1835420903E-04      47   30    1         0.1217664830E-02      0.1205826269E-01
          0                 6           1            44   33     1       0.1080386742E-04      44   33    1         0.9036623877E-03      0.9952192118E-02
          0                 7           1            41   31     2       0.1301736448E-04      47   30    1         0.6950618885E-03      0.8507861200E-02
          0                 8           1            38   32     2       0.7225132346E-05      44   33    1         0.6185616720E-03      0.7585196185E-02

    ------------------------------------------------
       NWT REQUIRED            8 OUTER ITERATIONS 
       AND A TOTAL OF          8 INNER ITERATIONS.
    ------------------------------------------------

 OUTPUT CONTROL FOR STRESS PERIOD    1   TIME STEP  857
    SAVE HEAD FOR ALL LAYERS
 SOLVING FOR ZETA FOR LAYER     1 ZONE     2

     610 UPPER PART EQS.       613 LOWER PART EQS.    BAND WIDTH + 1 =   27
 STRESS PERIOD=  1 TIMESTEP=857 LAYER=  1 ZONE=  2 ACTIVE CELLS= 1223 NUMBER OF EQUATIONS=    1223
 SOLVING FOR ZETA FOR LAYER     2 ZONE     2

     621 UPPER PART EQS.       620 LOWER PART EQS.    BAND WIDTH + 1 =   34
 STRESS PERIOD=  1 TIMESTEP=857 LAYER=  2 ZONE=  2 ACTIVE CELLS= 1241 NUMBER OF EQUATIONS=    1241
 UBUDSV SAVING "      ZETASRF  1" ON UNIT 55 AT TIME STEP857, STRESS PERIOD    1

 HEAD WILL BE SAVED ON UNIT   51 AT END OF TIME STEP  857, STRESS PERIOD    1
 
 SOLVING FOR HEAD 
                                                   Max.-Head-Change                         Max.-Flux-Residual
  Residual-Control   Outer-Iter.   Inner-Iter.     Column Row Layer    Maximum-Head-Change  Column Row Layer    Maximum-Flux-Residual          L2-NORM 
          0                 1           1            26   48     1       0.7335228247E-03      26   48    1         0.5259509889E+00      0.3481339756E+01
          0                 2           1            44   33     1      -0.6701743177E-04      45   32    1        -0.1437192271E-01      0.9352609112E-01
          0                 3           1            43   31     2      -0.3848698888E-04      47   30    1        -0.2928577980E-02      0.2627019773E-01
          0                 4           1            44   33     1      -0.1482452601E-04      44   33    1        -0.1485191742E-02      0.1402863255E-01
          0                 5           1            42   32     2      -0.1270132584E-04      47   30    1        -0.1032874079E-02      0.8953181391E-02
          0                 6           1            44   33     1      -0.7301173046E-05      44   33    1        -0.7178726118E-03      0.6178287412E-02

    ------------------------------------------------
       NWT REQUIRED            6 OUTER ITERATIONS 
       AND A TOTAL OF          6 INNER ITERATIONS.
    ------------------------------------------------

 OUTPUT CONTROL FOR STRESS PERIOD    1   TIME STEP  858
    SAVE HEAD FOR ALL LAYERS
 SOLVING FOR ZETA FOR LAYER     1 ZONE     2

     608 UPPER PART EQS.       605 LOWER PART EQS.    BAND WIDTH + 1 =   25
 STRESS PERIOD=  1 TIMESTEP=858 LAYER=  1 ZONE=  2 ACTIVE CELLS= 1213 NUMBER OF EQUATIONS=    1213
 SOLVING FOR ZETA FOR LAYER     2 ZONE     2

     621 UPPER PART EQS.       620 LOWER PART EQS.    BAND WIDTH + 1 =   34
 STRESS PERIOD=  1 TIMESTEP=858 LAYER=  2 ZONE=  2 ACTIVE CELLS= 1241 NUMBER OF EQUATIONS=    1241
 UBUDSV SAVING "      ZETASRF  1" ON UNIT 55 AT TIME STEP858, STRESS PERIOD    1

 HEAD WILL BE SAVED ON UNIT   51 AT END OF TIME STEP  858, STRESS PERIOD    1
 
 SOLVING FOR HEAD 
                                                   Max.-Head-Change                         Max.-Flux-Residual
  Residual-Control   Outer-Iter.   Inner-Iter.     Column Row Layer    Maximum-Head-Change  Column Row Layer    Maximum-Flux-Residual          L2-NORM 
          0                 1           1            34   49     1       0.7333774310E-03      35   48    1        -0.4638399275E+00      0.3544869371E+01
          0                 2           1            45   32     1       0.5269477555E-04      31   14    1         0.1425793056E-01      0.8499862040E-01
          0                 3           1            43   31     2       0.2665618111E-04      46   31    1         0.2247118225E-02      0.1996375728E-01
          0                 4           1            19   30     1       0.1131322891E-04      44   33    1         0.1108428118E-02      0.1057141078E-01
          0                 5           1            16   29     1       0.8748465838E-05      15   30    1         0.7267024982E-03      0.6898873332E-02

    ------------------------------------------------
       NWT REQUIRED            5 OUTER ITERATIONS 
       AND A TOTAL OF          5 INNER ITERATIONS.
    ------------------------------------------------

 OUTPUT CONTROL FOR STRESS PERIOD    1   TIME STEP  859
    SAVE HEAD FOR ALL LAYERS
 SOLVING FOR ZETA FOR LAYER     1 ZONE     2

     597 UPPER PART EQS.       605 LOWER PART EQS.    BAND WIDTH + 1 =   30
 STRESS PERIOD=  1 TIMESTEP=859 LAYER=  1 ZONE=  2 ACTIVE CELLS= 1202 NUMBER OF EQUATIONS=    1202
 SOLVING FOR ZETA FOR LAYER     2 ZONE     2

     621 UPPER PART EQS.       620 LOWER PART EQS.    BAND WIDTH + 1 =   34
 STRESS PERIOD=  1 TIMESTEP=859 LAYER=  2 ZONE=  2 ACTIVE CELLS= 1241 NUMBER OF EQUATIONS=    1241
 UBUDSV SAVING "      ZETASRF  1" ON UNIT 55 AT TIME STEP859, STRESS PERIOD    1

 HEAD WILL BE SAVED ON UNIT   51 AT END OF TIME STEP  859, STRESS PERIOD    1
 
 SOLVING FOR HEAD 
                                                   Max.-Head-Change                         Max.-Flux-Residual
  Residual-Control   Outer-Iter.   Inner-Iter.     Column Row Layer    Maximum-Head-Change  Column Row Layer    Maximum-Flux-Residual          L2-NORM 
          0                 1           1            34   14     1       0.7148743575E-03      27   49    1         0.4647839764E+00      0.3337725805E+01
          0                 2           1            45   32     1      -0.3848325346E-04      31   14    1        -0.1445558595E-01      0.7824204106E-01
          0                 3           1            34   45     1       0.1778863399E-04      46   31    1        -0.1661644591E-02      0.1558335511E-01
          0                 4           1            35   43     2       0.8493191017E-05      44   33    1        -0.7124996556E-03      0.7684654944E-02

    ------------------------------------------------
       NWT REQUIRED            4 OUTER ITERATIONS 
       AND A TOTAL OF          4 INNER ITERATIONS.
    ------------------------------------------------

 OUTPUT CONTROL FOR STRESS PERIOD    1   TIME STEP  860
    SAVE HEAD FOR ALL LAYERS
 SOLVING FOR ZETA FOR LAYER     1 ZONE     2

     606 UPPER PART EQS.       603 LOWER PART EQS.    BAND WIDTH + 1 =   26
 STRESS PERIOD=  1 TIMESTEP=860 LAYER=  1 ZONE=  2 ACTIVE CELLS= 1209 NUMBER OF EQUATIONS=    1209
 SOLVING FOR ZETA FOR LAYER     2 ZONE     2

     621 UPPER PART EQS.       620 LOWER PART EQS.    BAND WIDTH + 1 =   34
 STRESS PERIOD=  1 TIMESTEP=860 LAYER=  2 ZONE=  2 ACTIVE CELLS= 1241 NUMBER OF EQUATIONS=    1241
 UBUDSV SAVING "      ZETASRF  1" ON UNIT 55 AT TIME STEP860, STRESS PERIOD    1

 HEAD WILL BE SAVED ON UNIT   51 AT END OF TIME STEP  860, STRESS PERIOD    1
 
 SOLVING FOR HEAD 
                                                   Max.-Head-Change                         Max.-Flux-Residual
  Residual-Control   Outer-Iter.   Inner-Iter.     Column Row Layer    Maximum-Head-Change  Column Row Layer    Maximum-Flux-Residual          L2-NORM 
          0                 1           1            48   26     1      -0.7670518319E-03      36   49    1         0.5404074572E+00      0.3787537909E+01
          0                 2           1            45   32     1       0.3271874232E-04      45   32    1         0.1275435200E-01      0.8797685772E-01
          0                 3           1            36   45     1      -0.1227523459E-04      47   30    1         0.1375719866E-02      0.1354000474E-01
          0                 4           1            38   42     2      -0.6885343444E-05      38   42    2        -0.6334637109E-03      0.5972566111E-02

    ------------------------------------------------
       NWT REQUIRED            4 OUTER ITERATIONS 
       AND A TOTAL OF          4 INNER ITERATIONS.
    ------------------------------------------------

 OUTPUT CONTROL FOR STRESS PERIOD    1   TIME STEP  861
    SAVE HEAD FOR ALL LAYERS
 SOLVING FOR ZETA FOR LAYER     1 ZONE     2

     590 UPPER PART EQS.       605 LOWER PART EQS.    BAND WIDTH + 1 =   38
 STRESS PERIOD=  1 TIMESTEP=861 LAYER=  1 ZONE=  2 ACTIVE CELLS= 1195 NUMBER OF EQUATIONS=    1195
 SOLVING FOR ZETA FOR LAYER     2 ZONE     2

     621 UPPER PART EQS.       622 LOWER PART EQS.    BAND WIDTH + 1 =   34
 STRESS PERIOD=  1 TIMESTEP=861 LAYER=  2 ZONE=  2 ACTIVE CELLS= 1243 NUMBER OF EQUATIONS=    1243
 UBUDSV SAVING "      ZETASRF  1" ON UNIT 55 AT TIME STEP861, STRESS PERIOD    1

 HEAD WILL BE SAVED ON UNIT   51 AT END OF TIME STEP  861, STRESS PERIOD    1
 
 SOLVING FOR HEAD 
                                                   Max.-Head-Change                         Max.-Flux-Residual
  Residual-Control   Outer-Iter.   Inner-Iter.     Column Row Layer    Maximum-Head-Change  Column Row Layer    Maximum-Flux-Residual          L2-NORM 
          0                 1           1            48   32     1      -0.7226305456E-03      36   48    1         0.5243386776E+00      0.4151806184E+01
          0                 2           1            44   33     1      -0.4781818746E-04      45   32    1        -0.1412755776E-01      0.9454220024E-01
          0                 3           1            43   31     2      -0.1990970292E-04      46   31    1        -0.2010234494E-02      0.1508675537E-01
          0                 4           1            43   30     1      -0.8684909731E-05      45   28    1        -0.8938251782E-03      0.7366052387E-02

    ------------------------------------------------
       NWT REQUIRED            4 OUTER ITERATIONS 
       AND A TOTAL OF          4 INNER ITERATIONS.
    ------------------------------------------------

 OUTPUT CONTROL FOR STRESS PERIOD    1   TIME STEP  862
    SAVE HEAD FOR ALL LAYERS
 SOLVING FOR ZETA FOR LAYER     1 ZONE     2

     602 UPPER PART EQS.       594 LOWER PART EQS.    BAND WIDTH + 1 =   29
 STRESS PERIOD=  1 TIMESTEP=862 LAYER=  1 ZONE=  2 ACTIVE CELLS= 1196 NUMBER OF EQUATIONS=    1196
 SOLVING FOR ZETA FOR LAYER     2 ZONE     2

     621 UPPER PART EQS.       622 LOWER PART EQS.    BAND WIDTH + 1 =   34
 STRESS PERIOD=  1 TIMESTEP=862 LAYER=  2 ZONE=  2 ACTIVE CELLS= 1243 NUMBER OF EQUATIONS=    1243
 UBUDSV SAVING "      ZETASRF  1" ON UNIT 55 AT TIME STEP862, STRESS PERIOD    1

 HEAD WILL BE SAVED ON UNIT   51 AT END OF TIME STEP  862, STRESS PERIOD    1
 
 SOLVING FOR HEAD 
                                                   Max.-Head-Change                         Max.-Flux-Residual
  Residual-Control   Outer-Iter.   Inner-Iter.     Column Row Layer    Maximum-Head-Change  Column Row Layer    Maximum-Flux-Residual          L2-NORM 
          0                 1           1            26   49     1       0.7944807578E-03      26   48    1        -0.5389117104E+00      0.3567231146E+01
          0                 2           1            44   33     1       0.7337262307E-04      45   34    1         0.1535547104E-01      0.1079882512E+00
          0                 3           1            42   32     2       0.3962049727E-04      47   30    1         0.3267829859E-02      0.2819693150E-01
          0                 4           1            44   33     1       0.1813123201E-04      44   33    1         0.1613949582E-02      0.1576702599E-01
          0                 5           1            42   32     2       0.1711591405E-04      47   30    1         0.1207401223E-02      0.1164644408E-01
          0                 6           1            44   33     1       0.1070449491E-04      44   33    1         0.8923886876E-03      0.9583265623E-02
          0                 7           1            41   31     2       0.1179053926E-04      47   30    1         0.7083744421E-03      0.8128098997E-02
          0                 8           1            38   32     2       0.7227655694E-05      44   33    1         0.6053821955E-03      0.7235051529E-02

    ------------------------------------------------
       NWT REQUIRED            8 OUTER ITERATIONS 
       AND A TOTAL OF          8 INNER ITERATIONS.
    ------------------------------------------------

 OUTPUT CONTROL FOR STRESS PERIOD    1   TIME STEP  863
    SAVE HEAD FOR ALL LAYERS
 SOLVING FOR ZETA FOR LAYER     1 ZONE     2

     610 UPPER PART EQS.       606 LOWER PART EQS.    BAND WIDTH + 1 =   24
 STRESS PERIOD=  1 TIMESTEP=863 LAYER=  1 ZONE=  2 ACTIVE CELLS= 1216 NUMBER OF EQUATIONS=    1216
 SOLVING FOR ZETA FOR LAYER     2 ZONE     2

     621 UPPER PART EQS.       624 LOWER PART EQS.    BAND WIDTH + 1 =   34
 STRESS PERIOD=  1 TIMESTEP=863 LAYER=  2 ZONE=  2 ACTIVE CELLS= 1245 NUMBER OF EQUATIONS=    1245
 UBUDSV SAVING "      ZETASRF  1" ON UNIT 55 AT TIME STEP863, STRESS PERIOD    1

 HEAD WILL BE SAVED ON UNIT   51 AT END OF TIME STEP  863, STRESS PERIOD    1
 
 SOLVING FOR HEAD 
                                                   Max.-Head-Change                         Max.-Flux-Residual
  Residual-Control   Outer-Iter.   Inner-Iter.     Column Row Layer    Maximum-Head-Change  Column Row Layer    Maximum-Flux-Residual          L2-NORM 
          0                 1           1            26   48     1       0.7303609410E-03      26   48    1         0.5239514451E+00      0.3434885484E+01
          0                 2           1            44   33     1      -0.6695101470E-04      45   32    1        -0.1432390745E-01      0.9312825104E-01
          0                 3           1            43   31     2      -0.3866630966E-04      47   30    1        -0.2928211465E-02      0.2618447917E-01
          0                 4           1            44   33     1      -0.1497493991E-04      44   33    1        -0.1495165122E-02      0.1411780997E-01
          0                 5           1            42   32     2      -0.1296971661E-04      47   30    1        -0.1037729736E-02      0.9055066235E-02
          0                 6           1            44   33     1      -0.7457097311E-05      44   33    1        -0.7274944889E-03      0.6323967135E-02

    ------------------------------------------------
       NWT REQUIRED            6 OUTER ITERATIONS 
       AND A TOTAL OF          6 INNER ITERATIONS.
    ------------------------------------------------

 OUTPUT CONTROL FOR STRESS PERIOD    1   TIME STEP  864
    SAVE HEAD FOR ALL LAYERS
 SOLVING FOR ZETA FOR LAYER     1 ZONE     2

     608 UPPER PART EQS.       601 LOWER PART EQS.    BAND WIDTH + 1 =   27
 STRESS PERIOD=  1 TIMESTEP=864 LAYER=  1 ZONE=  2 ACTIVE CELLS= 1209 NUMBER OF EQUATIONS=    1209
 SOLVING FOR ZETA FOR LAYER     2 ZONE     2

     621 UPPER PART EQS.       624 LOWER PART EQS.    BAND WIDTH + 1 =   34
 STRESS PERIOD=  1 TIMESTEP=864 LAYER=  2 ZONE=  2 ACTIVE CELLS= 1245 NUMBER OF EQUATIONS=    1245
 UBUDSV SAVING "      ZETASRF  1" ON UNIT 55 AT TIME STEP864, STRESS PERIOD    1

 HEAD WILL BE SAVED ON UNIT   51 AT END OF TIME STEP  864, STRESS PERIOD    1
 
 SOLVING FOR HEAD 
                                                   Max.-Head-Change                         Max.-Flux-Residual
  Residual-Control   Outer-Iter.   Inner-Iter.     Column Row Layer    Maximum-Head-Change  Column Row Layer    Maximum-Flux-Residual          L2-NORM 
          0                 1           1            34   49     1       0.7314546394E-03      35   48    1        -0.4626631577E+00      0.3633932251E+01
          0                 2           1            45   32     1       0.5220601741E-04      31   14    1         0.1424935112E-01      0.8482301022E-01
          0                 3           1            43   31     2       0.2631919482E-04      46   31    1         0.2219282170E-02      0.1980516978E-01
          0                 4           1            19   30     1       0.1118539402E-04      44   33    1         0.1092010765E-02      0.1052044235E-01
          0                 5           1            16   29     1       0.8566722373E-05      15   30    1         0.7185318851E-03      0.6824976893E-02

    ------------------------------------------------
       NWT REQUIRED            5 OUTER ITERATIONS 
       AND A TOTAL OF          5 INNER ITERATIONS.
    ------------------------------------------------

 OUTPUT CONTROL FOR STRESS PERIOD    1   TIME STEP  865
    SAVE HEAD FOR ALL LAYERS
 SOLVING FOR ZETA FOR LAYER     1 ZONE     2

     601 UPPER PART EQS.       606 LOWER PART EQS.    BAND WIDTH + 1 =   28
 STRESS PERIOD=  1 TIMESTEP=865 LAYER=  1 ZONE=  2 ACTIVE CELLS= 1207 NUMBER OF EQUATIONS=    1207
 SOLVING FOR ZETA FOR LAYER     2 ZONE     2

     621 UPPER PART EQS.       624 LOWER PART EQS.    BAND WIDTH + 1 =   34
 STRESS PERIOD=  1 TIMESTEP=865 LAYER=  2 ZONE=  2 ACTIVE CELLS= 1245 NUMBER OF EQUATIONS=    1245
 UBUDSV SAVING "      ZETASRF  1" ON UNIT 55 AT TIME STEP865, STRESS PERIOD    1

 HEAD WILL BE SAVED ON UNIT   51 AT END OF TIME STEP  865, STRESS PERIOD    1
 
 SOLVING FOR HEAD 
                                                   Max.-Head-Change                         Max.-Flux-Residual
  Residual-Control   Outer-Iter.   Inner-Iter.     Column Row Layer    Maximum-Head-Change  Column Row Layer    Maximum-Flux-Residual          L2-NORM 
          0                 1           1            34   14     1       0.7123392541E-03      14   26    1        -0.5340491546E+00      0.3716520235E+01
          0                 2           1            45   32     1      -0.4892804943E-04      31   14    1        -0.1440754705E-01      0.8651739188E-01
          0                 3           1            43   31     2      -0.2531044708E-04      46   31    1        -0.2112486010E-02      0.1939527486E-01
          0                 4           1            19   30     1      -0.1053800709E-04      44   33    1        -0.1032626649E-02      0.1024096535E-01
          0                 5           1            16   31     1      -0.8600944088E-05      47   30    1        -0.7246222105E-03      0.6834425675E-02

    ------------------------------------------------
       NWT REQUIRED            5 OUTER ITERATIONS 
       AND A TOTAL OF          5 INNER ITERATIONS.
    ------------------------------------------------

 OUTPUT CONTROL FOR STRESS PERIOD    1   TIME STEP  866
    SAVE HEAD FOR ALL LAYERS
 SOLVING FOR ZETA FOR LAYER     1 ZONE     2

     601 UPPER PART EQS.       607 LOWER PART EQS.    BAND WIDTH + 1 =   29
 STRESS PERIOD=  1 TIMESTEP=866 LAYER=  1 ZONE=  2 ACTIVE CELLS= 1208 NUMBER OF EQUATIONS=    1208
 SOLVING FOR ZETA FOR LAYER     2 ZONE     2

     621 UPPER PART EQS.       624 LOWER PART EQS.    BAND WIDTH + 1 =   34
 STRESS PERIOD=  1 TIMESTEP=866 LAYER=  2 ZONE=  2 ACTIVE CELLS= 1245 NUMBER OF EQUATIONS=    1245
 UBUDSV SAVING "      ZETASRF  1" ON UNIT 55 AT TIME STEP866, STRESS PERIOD    1

 HEAD WILL BE SAVED ON UNIT   51 AT END OF TIME STEP  866, STRESS PERIOD    1
 
 SOLVING FOR HEAD 
                                                   Max.-Head-Change                         Max.-Flux-Residual
  Residual-Control   Outer-Iter.   Inner-Iter.     Column Row Layer    Maximum-Head-Change  Column Row Layer    Maximum-Flux-Residual          L2-NORM 
          0                 1           1            48   31     1       0.7036358749E-03      36   13    1         0.5399692442E+00      0.3792593031E+01
          0                 2           1            44   33     1       0.5464099121E-04      45   32    1         0.1393125102E-01      0.9035014369E-01
          0                 3           1            43   31     2       0.2696458389E-04      46   31    1         0.2422485890E-02      0.2223994068E-01
          0                 4           1            19   30     1       0.1086315196E-04      44   33    1         0.1125694922E-02      0.1101590713E-01
          0                 5           1            16   33     1       0.9529086091E-05      47   30    1         0.7658991004E-03      0.7049293220E-02

    ------------------------------------------------
       NWT REQUIRED            5 OUTER ITERATIONS 
       AND A TOTAL OF          5 INNER ITERATIONS.
    ------------------------------------------------

 OUTPUT CONTROL FOR STRESS PERIOD    1   TIME STEP  867
    SAVE HEAD FOR ALL LAYERS
 SOLVING FOR ZETA FOR LAYER     1 ZONE     2

     599 UPPER PART EQS.       611 LOWER PART EQS.    BAND WIDTH + 1 =   35
 STRESS PERIOD=  1 TIMESTEP=867 LAYER=  1 ZONE=  2 ACTIVE CELLS= 1210 NUMBER OF EQUATIONS=    1210
 SOLVING FOR ZETA FOR LAYER     2 ZONE     2

     617 UPPER PART EQS.       624 LOWER PART EQS.    BAND WIDTH + 1 =   34
 STRESS PERIOD=  1 TIMESTEP=867 LAYER=  2 ZONE=  2 ACTIVE CELLS= 1241 NUMBER OF EQUATIONS=    1241
 UBUDSV SAVING "      ZETASRF  1" ON UNIT 55 AT TIME STEP867, STRESS PERIOD    1

 HEAD WILL BE SAVED ON UNIT   51 AT END OF TIME STEP  867, STRESS PERIOD    1
 
 SOLVING FOR HEAD 
                                                   Max.-Head-Change                         Max.-Flux-Residual
  Residual-Control   Outer-Iter.   Inner-Iter.     Column Row Layer    Maximum-Head-Change  Column Row Layer    Maximum-Flux-Residual          L2-NORM 
          0                 1           1            48   32     1      -0.7278551792E-03      36   14    1         0.5226295735E+00      0.3887062510E+01
          0                 2           1            44   33     1      -0.5817478787E-04      45   32    1        -0.1452541234E-01      0.9317906519E-01
          0                 3           1            42   32     2      -0.2761597029E-04      47   30    1        -0.2538071065E-02      0.2195765547E-01
          0                 4           1            44   33     1      -0.9925908460E-05      44   33    1        -0.1119873776E-02      0.1003826204E-01

    ------------------------------------------------
       NWT REQUIRED            4 OUTER ITERATIONS 
       AND A TOTAL OF          4 INNER ITERATIONS.
    ------------------------------------------------

 OUTPUT CONTROL FOR STRESS PERIOD    1   TIME STEP  868
    SAVE HEAD FOR ALL LAYERS
 SOLVING FOR ZETA FOR LAYER     1 ZONE     2

     601 UPPER PART EQS.       602 LOWER PART EQS.    BAND WIDTH + 1 =   26
 STRESS PERIOD=  1 TIMESTEP=868 LAYER=  1 ZONE=  2 ACTIVE CELLS= 1203 NUMBER OF EQUATIONS=    1203
 SOLVING FOR ZETA FOR LAYER     2 ZONE     2

     613 UPPER PART EQS.       624 LOWER PART EQS.    BAND WIDTH + 1 =   34
 STRESS PERIOD=  1 TIMESTEP=868 LAYER=  2 ZONE=  2 ACTIVE CELLS= 1237 NUMBER OF EQUATIONS=    1237
 UBUDSV SAVING "      ZETASRF  1" ON UNIT 55 AT TIME STEP868, STRESS PERIOD    1

 HEAD WILL BE SAVED ON UNIT   51 AT END OF TIME STEP  868, STRESS PERIOD    1
 
 SOLVING FOR HEAD 
                                                   Max.-Head-Change                         Max.-Flux-Residual
  Residual-Control   Outer-Iter.   Inner-Iter.     Column Row Layer    Maximum-Head-Change  Column Row Layer    Maximum-Flux-Residual          L2-NORM 
          0                 1           1            26   49     1       0.7939946410E-03      26   14    1        -0.5374696428E+00      0.3381309133E+01
          0                 2           1            44   31     1       0.7329103834E-04      45   32    1         0.1518334902E-01      0.1042035350E+00
          0                 3           1            42   32     2       0.4075802061E-04      47   30    1         0.3308359609E-02      0.2803510675E-01
          0                 4           1            44   33     1       0.1794432265E-04      44   33    1         0.1608244613E-02      0.1554819143E-01
          0                 5           1            42   32     2       0.1767848239E-04      47   30    1         0.1198647226E-02      0.1145840488E-01
          0                 6           1            44   33     1       0.1039229167E-04      44   33    1         0.8770036507E-03      0.9400160852E-02
          0                 7           1            41   31     2       0.1212430515E-04      47   30    1         0.6698244051E-03      0.7977148517E-02
          0                 8           1            38   32     2       0.6966005226E-05      44   33    1         0.5859118289E-03      0.7107017542E-02

    ------------------------------------------------
       NWT REQUIRED            8 OUTER ITERATIONS 
       AND A TOTAL OF          8 INNER ITERATIONS.
    ------------------------------------------------

 OUTPUT CONTROL FOR STRESS PERIOD    1   TIME STEP  869
    SAVE HEAD FOR ALL LAYERS
 SOLVING FOR ZETA FOR LAYER     1 ZONE     2

     606 UPPER PART EQS.       614 LOWER PART EQS.    BAND WIDTH + 1 =   30
 STRESS PERIOD=  1 TIMESTEP=869 LAYER=  1 ZONE=  2 ACTIVE CELLS= 1220 NUMBER OF EQUATIONS=    1220
 SOLVING FOR ZETA FOR LAYER     2 ZONE     2

     613 UPPER PART EQS.       624 LOWER PART EQS.    BAND WIDTH + 1 =   34
 STRESS PERIOD=  1 TIMESTEP=869 LAYER=  2 ZONE=  2 ACTIVE CELLS= 1237 NUMBER OF EQUATIONS=    1237
 UBUDSV SAVING "      ZETASRF  1" ON UNIT 55 AT TIME STEP869, STRESS PERIOD    1

 HEAD WILL BE SAVED ON UNIT   51 AT END OF TIME STEP  869, STRESS PERIOD    1
 
 SOLVING FOR HEAD 
                                                   Max.-Head-Change                         Max.-Flux-Residual
  Residual-Control   Outer-Iter.   Inner-Iter.     Column Row Layer    Maximum-Head-Change  Column Row Layer    Maximum-Flux-Residual          L2-NORM 
          0                 1           1            48   34     1      -0.8039637501E-03      26   48    1         0.5220122219E+00      0.3874671049E+01
          0                 2           1            44   31     1      -0.8428228597E-04      45   34    1        -0.1583408868E-01      0.1154386353E+00
          0                 3           1            43   31     2      -0.4845258777E-04      47   30    1        -0.3735442793E-02      0.3201836700E-01
          0                 4           1            44   33     1      -0.2093025508E-04      44   33    1        -0.1801948633E-02      0.1845913555E-01
          0                 5           1            42   32     2      -0.2080857367E-04      47   30    1        -0.1390817660E-02      0.1370202878E-01
          0                 6           1            44   31     1      -0.1225308606E-04      44   33    1        -0.9969917916E-03      0.1124528191E-01
          0                 7           1            42   32     2      -0.1413898677E-04      47   30    1        -0.7778540261E-03      0.9507734122E-02
          0                 8           1            38   32     2      -0.8184507303E-05      44   33    1        -0.6603393140E-03      0.8467047390E-02

    ------------------------------------------------
       NWT REQUIRED            8 OUTER ITERATIONS 
       AND A TOTAL OF          8 INNER ITERATIONS.
    ------------------------------------------------

 OUTPUT CONTROL FOR STRESS PERIOD    1   TIME STEP  870
    SAVE HEAD FOR ALL LAYERS
 SOLVING FOR ZETA FOR LAYER     1 ZONE     2

     602 UPPER PART EQS.       604 LOWER PART EQS.    BAND WIDTH + 1 =   26
 STRESS PERIOD=  1 TIMESTEP=870 LAYER=  1 ZONE=  2 ACTIVE CELLS= 1206 NUMBER OF EQUATIONS=    1206
 SOLVING FOR ZETA FOR LAYER     2 ZONE     2

     613 UPPER PART EQS.       624 LOWER PART EQS.    BAND WIDTH + 1 =   34
 STRESS PERIOD=  1 TIMESTEP=870 LAYER=  2 ZONE=  2 ACTIVE CELLS= 1237 NUMBER OF EQUATIONS=    1237
 UBUDSV SAVING "      ZETASRF  1" ON UNIT 55 AT TIME STEP870, STRESS PERIOD    1

 HEAD WILL BE SAVED ON UNIT   51 AT END OF TIME STEP  870, STRESS PERIOD    1
 
 SOLVING FOR HEAD 
                                                   Max.-Head-Change                         Max.-Flux-Residual
  Residual-Control   Outer-Iter.   Inner-Iter.     Column Row Layer    Maximum-Head-Change  Column Row Layer    Maximum-Flux-Residual          L2-NORM 
          0                 1           1            48   33     1       0.7628427422E-03      14   26    1        -0.5326350326E+00      0.3829944570E+01
          0                 2           1            44   31     1       0.7158582156E-04      45   34    1         0.1528983605E-01      0.1021549051E+00
          0                 3           1            43   31     2       0.3400758849E-04      47   30    1         0.3216653895E-02      0.2474843466E-01
          0                 4           1            44   33     1       0.1552366030E-04      44   33    1         0.1391799862E-02      0.1341315807E-01
          0                 5           1            42   32     2       0.1349424365E-04      47   30    1         0.1025935935E-02      0.1021401299E-01
          0                 6           1            44   33     1       0.9357365255E-05      44   33    1         0.7158018063E-03      0.8687785493E-02

    ------------------------------------------------
       NWT REQUIRED            6 OUTER ITERATIONS 
       AND A TOTAL OF          6 INNER ITERATIONS.
    ------------------------------------------------

 OUTPUT CONTROL FOR STRESS PERIOD    1   TIME STEP  871
    SAVE HEAD FOR ALL LAYERS
 SOLVING FOR ZETA FOR LAYER     1 ZONE     2

     599 UPPER PART EQS.       609 LOWER PART EQS.    BAND WIDTH + 1 =   31
 STRESS PERIOD=  1 TIMESTEP=871 LAYER=  1 ZONE=  2 ACTIVE CELLS= 1208 NUMBER OF EQUATIONS=    1208
 SOLVING FOR ZETA FOR LAYER     2 ZONE     2

     613 UPPER PART EQS.       624 LOWER PART EQS.    BAND WIDTH + 1 =   34
 STRESS PERIOD=  1 TIMESTEP=871 LAYER=  2 ZONE=  2 ACTIVE CELLS= 1237 NUMBER OF EQUATIONS=    1237
 UBUDSV SAVING "      ZETASRF  1" ON UNIT 55 AT TIME STEP871, STRESS PERIOD    1

 HEAD WILL BE SAVED ON UNIT   51 AT END OF TIME STEP  871, STRESS PERIOD    1
 
 SOLVING FOR HEAD 
                                                   Max.-Head-Change                         Max.-Flux-Residual
  Residual-Control   Outer-Iter.   Inner-Iter.     Column Row Layer    Maximum-Head-Change  Column Row Layer    Maximum-Flux-Residual          L2-NORM 
          0                 1           1            48   31     1      -0.6863764779E-03      36   48    1        -0.5334328788E+00      0.3428388858E+01
          0                 2           1            45   32     1      -0.3869226524E-04      45   32    1        -0.1289470391E-01      0.7701346741E-01
          0                 3           1            17   32     1      -0.1205505583E-04      47   30    1        -0.1653470674E-02      0.1220211577E-01
          0                 4           1            17   31     2      -0.3535985354E-05      44   33    1        -0.5221692471E-03      0.4320217109E-02

    ------------------------------------------------
       NWT REQUIRED            4 OUTER ITERATIONS 
       AND A TOTAL OF          4 INNER ITERATIONS.
    ------------------------------------------------

 OUTPUT CONTROL FOR STRESS PERIOD    1   TIME STEP  872
    SAVE HEAD FOR ALL LAYERS
 SOLVING FOR ZETA FOR LAYER     1 ZONE     2

     608 UPPER PART EQS.       605 LOWER PART EQS.    BAND WIDTH + 1 =   25
 STRESS PERIOD=  1 TIMESTEP=872 LAYER=  1 ZONE=  2 ACTIVE CELLS= 1213 NUMBER OF EQUATIONS=    1213
 SOLVING FOR ZETA FOR LAYER     2 ZONE     2

     613 UPPER PART EQS.       624 LOWER PART EQS.    BAND WIDTH + 1 =   34
 STRESS PERIOD=  1 TIMESTEP=872 LAYER=  2 ZONE=  2 ACTIVE CELLS= 1237 NUMBER OF EQUATIONS=    1237
 UBUDSV SAVING "      ZETASRF  1" ON UNIT 55 AT TIME STEP872, STRESS PERIOD    1

 HEAD WILL BE SAVED ON UNIT   51 AT END OF TIME STEP  872, STRESS PERIOD    1
 
 SOLVING FOR HEAD 
                                                   Max.-Head-Change                         Max.-Flux-Residual
  Residual-Control   Outer-Iter.   Inner-Iter.     Column Row Layer    Maximum-Head-Change  Column Row Layer    Maximum-Flux-Residual          L2-NORM 
          0                 1           1            34   13     1       0.6896094268E-03      36   14    1         0.5206331714E+00      0.3695340684E+01
          0                 2           1            45   32     1       0.2990610943E-04      38   47    1        -0.1355255586E-01      0.7995392590E-01
          0                 3           1            33   16     1      -0.1171211894E-04      32   46    2        -0.1339962679E-02      0.1147629946E-01
          0                 4           1            34   44     2      -0.5184934362E-05      31   45    2        -0.5756961320E-03      0.5207887626E-02

    ------------------------------------------------
       NWT REQUIRED            4 OUTER ITERATIONS 
       AND A TOTAL OF          4 INNER ITERATIONS.
    ------------------------------------------------

 OUTPUT CONTROL FOR STRESS PERIOD    1   TIME STEP  873
    SAVE HEAD FOR ALL LAYERS
 SOLVING FOR ZETA FOR LAYER     1 ZONE     2

     600 UPPER PART EQS.       603 LOWER PART EQS.    BAND WIDTH + 1 =   31
 STRESS PERIOD=  1 TIMESTEP=873 LAYER=  1 ZONE=  2 ACTIVE CELLS= 1203 NUMBER OF EQUATIONS=    1203
 SOLVING FOR ZETA FOR LAYER     2 ZONE     2

     613 UPPER PART EQS.       624 LOWER PART EQS.    BAND WIDTH + 1 =   34
 STRESS PERIOD=  1 TIMESTEP=873 LAYER=  2 ZONE=  2 ACTIVE CELLS= 1237 NUMBER OF EQUATIONS=    1237
 UBUDSV SAVING "      ZETASRF  1" ON UNIT 55 AT TIME STEP873, STRESS PERIOD    1

 HEAD WILL BE SAVED ON UNIT   51 AT END OF TIME STEP  873, STRESS PERIOD    1
 
 SOLVING FOR HEAD 
                                                   Max.-Head-Change                         Max.-Flux-Residual
  Residual-Control   Outer-Iter.   Inner-Iter.     Column Row Layer    Maximum-Head-Change  Column Row Layer    Maximum-Flux-Residual          L2-NORM 
          0                 1           1            34   14     1       0.6994970866E-03      26   48    1        -0.5334303710E+00      0.3922387796E+01
          0                 2           1            31   16     1       0.4058948025E-04      38   47    1         0.1298402424E-01      0.8783600272E-01
          0                 3           1            34   45     1       0.2093595860E-04      30   46    2         0.1962091239E-02      0.1662722597E-01
          0                 4           1            33   43     2       0.8297598779E-05      35   50    1         0.5761489624E-03      0.7490330323E-02

    ------------------------------------------------
       NWT REQUIRED            4 OUTER ITERATIONS 
       AND A TOTAL OF          4 INNER ITERATIONS.
    ------------------------------------------------

 OUTPUT CONTROL FOR STRESS PERIOD    1   TIME STEP  874
    SAVE HEAD FOR ALL LAYERS
 SOLVING FOR ZETA FOR LAYER     1 ZONE     2

     606 UPPER PART EQS.       596 LOWER PART EQS.    BAND WIDTH + 1 =   31
 STRESS PERIOD=  1 TIMESTEP=874 LAYER=  1 ZONE=  2 ACTIVE CELLS= 1202 NUMBER OF EQUATIONS=    1202
 SOLVING FOR ZETA FOR LAYER     2 ZONE     2

     617 UPPER PART EQS.       624 LOWER PART EQS.    BAND WIDTH + 1 =   34
 STRESS PERIOD=  1 TIMESTEP=874 LAYER=  2 ZONE=  2 ACTIVE CELLS= 1241 NUMBER OF EQUATIONS=    1241
 UBUDSV SAVING "      ZETASRF  1" ON UNIT 55 AT TIME STEP874, STRESS PERIOD    1

 HEAD WILL BE SAVED ON UNIT   51 AT END OF TIME STEP  874, STRESS PERIOD    1
 
 SOLVING FOR HEAD 
                                                   Max.-Head-Change                         Max.-Flux-Residual
  Residual-Control   Outer-Iter.   Inner-Iter.     Column Row Layer    Maximum-Head-Change  Column Row Layer    Maximum-Flux-Residual          L2-NORM 
          0                 1           1            48   31     1       0.6934544090E-03      26   48    1         0.5204580451E+00      0.3393170999E+01
          0                 2           1            44   33     1       0.5800757392E-04      45   32    1         0.1379186504E-01      0.8580436279E-01
          0                 3           1            43   31     2       0.3578460673E-04      46   31    1         0.2638321638E-02      0.2322398111E-01
          0                 4           1            44   33     1       0.1519310757E-04      44   33    1         0.1433279546E-02      0.1300384547E-01
          0                 5           1            42   32     2       0.1419204034E-04      47   30    1         0.1007369414E-02      0.9510652928E-02
          0                 6           1            44   33     1       0.8618340055E-05      44   33    1         0.7596032017E-03      0.7683274326E-02

    ------------------------------------------------
       NWT REQUIRED            6 OUTER ITERATIONS 
       AND A TOTAL OF          6 INNER ITERATIONS.
    ------------------------------------------------

 OUTPUT CONTROL FOR STRESS PERIOD    1   TIME STEP  875
    SAVE HEAD FOR ALL LAYERS
 SOLVING FOR ZETA FOR LAYER     1 ZONE     2

     604 UPPER PART EQS.       606 LOWER PART EQS.    BAND WIDTH + 1 =   28
 STRESS PERIOD=  1 TIMESTEP=875 LAYER=  1 ZONE=  2 ACTIVE CELLS= 1210 NUMBER OF EQUATIONS=    1210
 SOLVING FOR ZETA FOR LAYER     2 ZONE     2

     621 UPPER PART EQS.       624 LOWER PART EQS.    BAND WIDTH + 1 =   34
 STRESS PERIOD=  1 TIMESTEP=875 LAYER=  2 ZONE=  2 ACTIVE CELLS= 1245 NUMBER OF EQUATIONS=    1245
 UBUDSV SAVING "      ZETASRF  1" ON UNIT 55 AT TIME STEP875, STRESS PERIOD    1

 HEAD WILL BE SAVED ON UNIT   51 AT END OF TIME STEP  875, STRESS PERIOD    1
 
 SOLVING FOR HEAD 
                                                   Max.-Head-Change                         Max.-Flux-Residual
  Residual-Control   Outer-Iter.   Inner-Iter.     Column Row Layer    Maximum-Head-Change  Column Row Layer    Maximum-Flux-Residual          L2-NORM 
          0                 1           1            48   35     1      -0.9070568148E-03      14   26    1        -0.5313463067E+00      0.4224081027E+01
          0                 2           1            44   31     1      -0.9674405438E-04      45   36    1        -0.1830219804E-01      0.1374200923E+00
          0                 3           1            42   32     2      -0.6057772862E-04      47   30    1        -0.4234581387E-02      0.4017236382E-01
          0                 4           1            44   31     1      -0.2536749563E-04      44   29    1        -0.2181838459E-02      0.2320845554E-01
          0                 5           1            42   32     2      -0.2660510046E-04      47   30    1        -0.1593712705E-02      0.1714582687E-01
          0                 6           1            44   31     1      -0.1447127028E-04      44   29    1        -0.1222562912E-02      0.1394915232E-01
          0                 7           1            42   32     2      -0.1833551292E-04      47   34    1        -0.8862751934E-03      0.1172399179E-01
          0                 8           1            38   32     2      -0.9435092007E-05      44   29    1        -0.8162532054E-03      0.1041136857E-01

    ------------------------------------------------
       NWT REQUIRED            8 OUTER ITERATIONS 
       AND A TOTAL OF          8 INNER ITERATIONS.
    ------------------------------------------------

 OUTPUT CONTROL FOR STRESS PERIOD    1   TIME STEP  876
    SAVE HEAD FOR ALL LAYERS
 SOLVING FOR ZETA FOR LAYER     1 ZONE     2

     592 UPPER PART EQS.       603 LOWER PART EQS.    BAND WIDTH + 1 =   32
 STRESS PERIOD=  1 TIMESTEP=876 LAYER=  1 ZONE=  2 ACTIVE CELLS= 1195 NUMBER OF EQUATIONS=    1195
 SOLVING FOR ZETA FOR LAYER     2 ZONE     2

     621 UPPER PART EQS.       624 LOWER PART EQS.    BAND WIDTH + 1 =   34
 STRESS PERIOD=  1 TIMESTEP=876 LAYER=  2 ZONE=  2 ACTIVE CELLS= 1245 NUMBER OF EQUATIONS=    1245
 UBUDSV SAVING "      ZETASRF  1" ON UNIT 55 AT TIME STEP876, STRESS PERIOD    1

 HEAD WILL BE SAVED ON UNIT   51 AT END OF TIME STEP  876, STRESS PERIOD    1
 
 SOLVING FOR HEAD 
                                                   Max.-Head-Change                         Max.-Flux-Residual
  Residual-Control   Outer-Iter.   Inner-Iter.     Column Row Layer    Maximum-Head-Change  Column Row Layer    Maximum-Flux-Residual          L2-NORM 
          0                 1           1            48   35     1       0.8993144680E-03      36   48    1         0.5185751737E+00      0.3851778328E+01
          0                 2           1            44   31     1       0.9718449083E-04      45   36    1         0.1807100795E-01      0.1294340187E+00
          0                 3           1            42   32     2       0.5722928457E-04      47   30    1         0.4216969298E-02      0.3881334952E-01
          0                 4           1            44   31     1       0.2502907116E-04      44   29    1         0.2110643396E-02      0.2347355632E-01
          0                 5           1            42   32     2       0.2760613382E-04      47   30    1         0.1526604522E-02      0.1845404477E-01
          0                 6           1            44   31     1       0.1465222562E-04      44   29    1         0.1222342523E-02      0.1580688708E-01
          0                 7           1            41   31     2       0.2011018350E-04      47   30    1         0.8900863613E-03      0.1369555415E-01
          0                 8           1            38   32     2       0.1062897933E-04      44   29    1         0.8894992493E-03      0.1237955394E-01
          0                 9           1            34   32     2       0.1583276084E-04      42   30    2         0.6217660901E-03      0.1086864134E-01
          0                10           1            38   32     2       0.8381444829E-05      44   29    1         0.6982485888E-03      0.9945649322E-02

    ------------------------------------------------
       NWT REQUIRED           10 OUTER ITERATIONS 
       AND A TOTAL OF         10 INNER ITERATIONS.
    ------------------------------------------------

 OUTPUT CONTROL FOR STRESS PERIOD    1   TIME STEP  877
    SAVE HEAD FOR ALL LAYERS
 SOLVING FOR ZETA FOR LAYER     1 ZONE     2

     607 UPPER PART EQS.       609 LOWER PART EQS.    BAND WIDTH + 1 =   25
 STRESS PERIOD=  1 TIMESTEP=877 LAYER=  1 ZONE=  2 ACTIVE CELLS= 1216 NUMBER OF EQUATIONS=    1216
 SOLVING FOR ZETA FOR LAYER     2 ZONE     2

     621 UPPER PART EQS.       624 LOWER PART EQS.    BAND WIDTH + 1 =   34
 STRESS PERIOD=  1 TIMESTEP=877 LAYER=  2 ZONE=  2 ACTIVE CELLS= 1245 NUMBER OF EQUATIONS=    1245
 UBUDSV SAVING "      ZETASRF  1" ON UNIT 55 AT TIME STEP877, STRESS PERIOD    1

 HEAD WILL BE SAVED ON UNIT   51 AT END OF TIME STEP  877, STRESS PERIOD    1
 
 SOLVING FOR HEAD 
                                                   Max.-Head-Change                         Max.-Flux-Residual
  Residual-Control   Outer-Iter.   Inner-Iter.     Column Row Layer    Maximum-Head-Change  Column Row Layer    Maximum-Flux-Residual          L2-NORM 
          0                 1           1            48   33     1      -0.7351811903E-03      27   49    1         0.4598635316E+00      0.3493186184E+01
          0                 2           1            44   31     1      -0.6742724646E-04      45   32    1        -0.1485446409E-01      0.9572658438E-01
          0                 3           1            43   31     2      -0.3132319352E-04      47   30    1        -0.2984337374E-02      0.2370134512E-01
          0                 4           1            44   33     1      -0.1414144008E-04      44   33    1        -0.1281031126E-02      0.1334597035E-01
          0                 5           1            16   33     1      -0.1255124174E-04      47   30    1        -0.9516488867E-03      0.1057541924E-01
          0                 6           1            19   30     1      -0.8771369227E-05      44   33    1        -0.6698159987E-03      0.9209462022E-02

    ------------------------------------------------
       NWT REQUIRED            6 OUTER ITERATIONS 
       AND A TOTAL OF          6 INNER ITERATIONS.
    ------------------------------------------------

 OUTPUT CONTROL FOR STRESS PERIOD    1   TIME STEP  878
    SAVE HEAD FOR ALL LAYERS
 SOLVING FOR ZETA FOR LAYER     1 ZONE     2

     602 UPPER PART EQS.       607 LOWER PART EQS.    BAND WIDTH + 1 =   28
 STRESS PERIOD=  1 TIMESTEP=878 LAYER=  1 ZONE=  2 ACTIVE CELLS= 1209 NUMBER OF EQUATIONS=    1209
 SOLVING FOR ZETA FOR LAYER     2 ZONE     2

     621 UPPER PART EQS.       624 LOWER PART EQS.    BAND WIDTH + 1 =   34
 STRESS PERIOD=  1 TIMESTEP=878 LAYER=  2 ZONE=  2 ACTIVE CELLS= 1245 NUMBER OF EQUATIONS=    1245
 UBUDSV SAVING "      ZETASRF  1" ON UNIT 55 AT TIME STEP878, STRESS PERIOD    1

 HEAD WILL BE SAVED ON UNIT   51 AT END OF TIME STEP  878, STRESS PERIOD    1
 
 SOLVING FOR HEAD 
                                                   Max.-Head-Change                         Max.-Flux-Residual
  Residual-Control   Outer-Iter.   Inner-Iter.     Column Row Layer    Maximum-Head-Change  Column Row Layer    Maximum-Flux-Residual          L2-NORM 
          0                 1           1            48   32     1       0.7224098873E-03      26   14    1        -0.5322450368E+00      0.3726881701E+01
          0                 2           1            44   33     1       0.5566297185E-04      45   32    1         0.1439920004E-01      0.8876001176E-01
          0                 3           1            43   31     2       0.2422592596E-04      47   30    1         0.2348031862E-02      0.1869176350E-01
          0                 4           1            43   30     1       0.9525057249E-05      44   33    1         0.9799230988E-03      0.9332425472E-02

    ------------------------------------------------
       NWT REQUIRED            4 OUTER ITERATIONS 
       AND A TOTAL OF          4 INNER ITERATIONS.
    ------------------------------------------------

 OUTPUT CONTROL FOR STRESS PERIOD    1   TIME STEP  879
    SAVE HEAD FOR ALL LAYERS
 SOLVING FOR ZETA FOR LAYER     1 ZONE     2

     607 UPPER PART EQS.       613 LOWER PART EQS.    BAND WIDTH + 1 =   30
 STRESS PERIOD=  1 TIMESTEP=879 LAYER=  1 ZONE=  2 ACTIVE CELLS= 1220 NUMBER OF EQUATIONS=    1220
 SOLVING FOR ZETA FOR LAYER     2 ZONE     2

     621 UPPER PART EQS.       622 LOWER PART EQS.    BAND WIDTH + 1 =   34
 STRESS PERIOD=  1 TIMESTEP=879 LAYER=  2 ZONE=  2 ACTIVE CELLS= 1243 NUMBER OF EQUATIONS=    1243
 UBUDSV SAVING "      ZETASRF  1" ON UNIT 55 AT TIME STEP879, STRESS PERIOD    1

 HEAD WILL BE SAVED ON UNIT   51 AT END OF TIME STEP  879, STRESS PERIOD    1
 
 SOLVING FOR HEAD 
                                                   Max.-Head-Change                         Max.-Flux-Residual
  Residual-Control   Outer-Iter.   Inner-Iter.     Column Row Layer    Maximum-Head-Change  Column Row Layer    Maximum-Flux-Residual          L2-NORM 
          0                 1           1            48   31     1      -0.6807743507E-03      26   48    1         0.5187923190E+00      0.3419066989E+01
          0                 2           1            45   32     1      -0.4000910074E-04      10   31    1         0.1287112663E-01      0.7766101619E-01
          0                 3           1            32   44     2       0.1540441714E-04      46   31    1        -0.1733818554E-02      0.1572196197E-01
          0                 4           1            30   43     1       0.7430380012E-05      44   33    1        -0.6736711213E-03      0.7229154793E-02

    ------------------------------------------------
       NWT REQUIRED            4 OUTER ITERATIONS 
       AND A TOTAL OF          4 INNER ITERATIONS.
    ------------------------------------------------

 OUTPUT CONTROL FOR STRESS PERIOD    1   TIME STEP  880
    SAVE HEAD FOR ALL LAYERS
 SOLVING FOR ZETA FOR LAYER     1 ZONE     2

     604 UPPER PART EQS.       604 LOWER PART EQS.    BAND WIDTH + 1 =   25
 STRESS PERIOD=  1 TIMESTEP=880 LAYER=  1 ZONE=  2 ACTIVE CELLS= 1208 NUMBER OF EQUATIONS=    1208
 SOLVING FOR ZETA FOR LAYER     2 ZONE     2

     621 UPPER PART EQS.       622 LOWER PART EQS.    BAND WIDTH + 1 =   34
 STRESS PERIOD=  1 TIMESTEP=880 LAYER=  2 ZONE=  2 ACTIVE CELLS= 1243 NUMBER OF EQUATIONS=    1243
 UBUDSV SAVING "      ZETASRF  1" ON UNIT 55 AT TIME STEP880, STRESS PERIOD    1

 HEAD WILL BE SAVED ON UNIT   51 AT END OF TIME STEP  880, STRESS PERIOD    1
 
 SOLVING FOR HEAD 
                                                   Max.-Head-Change                         Max.-Flux-Residual
  Residual-Control   Outer-Iter.   Inner-Iter.     Column Row Layer    Maximum-Head-Change  Column Row Layer    Maximum-Flux-Residual          L2-NORM 
          0                 1           1            35   48     1      -0.8402454549E-03      13   36    1         0.5307960299E+00      0.3896180143E+01
          0                 2           1            31   46     1      -0.6281420559E-04      31   50    1         0.1443712886E-01      0.1066374196E+00
          0                 3           1            32   44     2      -0.3255282992E-04      32   44    2        -0.2654613456E-02      0.2438854736E-01
          0                 4           1            32   17     1      -0.1428717244E-04      30   42    2        -0.1187021243E-02      0.1229062870E-01
          0                 5           1            32   44     2      -0.1013595600E-04      34   15    1        -0.8172817203E-03      0.8591951349E-02
          0                 6           1            32   17     1      -0.7426990620E-05      31   46    1        -0.5070433123E-03      0.6717128585E-02

    ------------------------------------------------
       NWT REQUIRED            6 OUTER ITERATIONS 
       AND A TOTAL OF          6 INNER ITERATIONS.
    ------------------------------------------------

 OUTPUT CONTROL FOR STRESS PERIOD    1   TIME STEP  881
    SAVE HEAD FOR ALL LAYERS
 SOLVING FOR ZETA FOR LAYER     1 ZONE     2

     595 UPPER PART EQS.       608 LOWER PART EQS.    BAND WIDTH + 1 =   37
 STRESS PERIOD=  1 TIMESTEP=881 LAYER=  1 ZONE=  2 ACTIVE CELLS= 1203 NUMBER OF EQUATIONS=    1203
 SOLVING FOR ZETA FOR LAYER     2 ZONE     2

     621 UPPER PART EQS.       624 LOWER PART EQS.    BAND WIDTH + 1 =   34
 STRESS PERIOD=  1 TIMESTEP=881 LAYER=  2 ZONE=  2 ACTIVE CELLS= 1245 NUMBER OF EQUATIONS=    1245
 UBUDSV SAVING "      ZETASRF  1" ON UNIT 55 AT TIME STEP881, STRESS PERIOD    1

 HEAD WILL BE SAVED ON UNIT   51 AT END OF TIME STEP  881, STRESS PERIOD    1
 
 SOLVING FOR HEAD 
                                                   Max.-Head-Change                         Max.-Flux-Residual
  Residual-Control   Outer-Iter.   Inner-Iter.     Column Row Layer    Maximum-Head-Change  Column Row Layer    Maximum-Flux-Residual          L2-NORM 
          0                 1           1            35   48     1       0.8315221713E-03      36   14    1         0.5173460039E+00      0.4083195824E+01
          0                 2           1            31   46     1       0.6445621022E-04      31   50    1        -0.1355265313E-01      0.1042895714E+00
          0                 3           1            32   44     2       0.3503081171E-04      32   44    2         0.2693231764E-02      0.2677233707E-01
          0                 4           1            32   17     1       0.1396552507E-04      31   41    2         0.1221887979E-02      0.1391152310E-01
          0                 5           1            32   44     2       0.9976607509E-05      34   15    1         0.9091312685E-03      0.8884600035E-02

    ------------------------------------------------
       NWT REQUIRED            5 OUTER ITERATIONS 
       AND A TOTAL OF          5 INNER ITERATIONS.
    ------------------------------------------------

 OUTPUT CONTROL FOR STRESS PERIOD    1   TIME STEP  882
    SAVE HEAD FOR ALL LAYERS
 SOLVING FOR ZETA FOR LAYER     1 ZONE     2

     606 UPPER PART EQS.       605 LOWER PART EQS.    BAND WIDTH + 1 =   25
 STRESS PERIOD=  1 TIMESTEP=882 LAYER=  1 ZONE=  2 ACTIVE CELLS= 1211 NUMBER OF EQUATIONS=    1211
 SOLVING FOR ZETA FOR LAYER     2 ZONE     2

     621 UPPER PART EQS.       624 LOWER PART EQS.    BAND WIDTH + 1 =   34
 STRESS PERIOD=  1 TIMESTEP=882 LAYER=  2 ZONE=  2 ACTIVE CELLS= 1245 NUMBER OF EQUATIONS=    1245
 UBUDSV SAVING "      ZETASRF  1" ON UNIT 55 AT TIME STEP882, STRESS PERIOD    1

 HEAD WILL BE SAVED ON UNIT   51 AT END OF TIME STEP  882, STRESS PERIOD    1
 
 SOLVING FOR HEAD 
                                                   Max.-Head-Change                         Max.-Flux-Residual
  Residual-Control   Outer-Iter.   Inner-Iter.     Column Row Layer    Maximum-Head-Change  Column Row Layer    Maximum-Flux-Residual          L2-NORM 
          0                 1           1            48   31     1       0.7093916833E-03      48   27    1         0.4452559594E+00      0.3156592138E+01
          0                 2           1            44   31     1       0.6955303159E-04      45   32    1         0.1447890082E-01      0.8921013446E-01
          0                 3           1            43   31     2       0.4121068777E-04      47   30    1         0.3028260763E-02      0.2581163938E-01
          0                 4           1            44   33     1       0.1801214956E-04      44   33    1         0.1574946258E-02      0.1582407966E-01
          0                 5           1            42   32     2       0.1687680928E-04      47   30    1         0.1177191644E-02      0.1229981408E-01
          0                 6           1            44   33     1       0.1060195971E-04      44   33    1         0.8836927645E-03      0.1039400320E-01
          0                 7           1            41   31     2       0.1121192505E-04      47   30    1         0.6759791633E-03      0.8999524743E-02
          0                 8           1            38   32     2       0.7778062472E-05      44   33    1         0.5988447631E-03      0.8093330845E-02

    ------------------------------------------------
       NWT REQUIRED            8 OUTER ITERATIONS 
       AND A TOTAL OF          8 INNER ITERATIONS.
    ------------------------------------------------

 OUTPUT CONTROL FOR STRESS PERIOD    1   TIME STEP  883
    SAVE HEAD FOR ALL LAYERS
 SOLVING FOR ZETA FOR LAYER     1 ZONE     2

     605 UPPER PART EQS.       607 LOWER PART EQS.    BAND WIDTH + 1 =   26
 STRESS PERIOD=  1 TIMESTEP=883 LAYER=  1 ZONE=  2 ACTIVE CELLS= 1212 NUMBER OF EQUATIONS=    1212
 SOLVING FOR ZETA FOR LAYER     2 ZONE     2

     621 UPPER PART EQS.       624 LOWER PART EQS.    BAND WIDTH + 1 =   34
 STRESS PERIOD=  1 TIMESTEP=883 LAYER=  2 ZONE=  2 ACTIVE CELLS= 1245 NUMBER OF EQUATIONS=    1245
 UBUDSV SAVING "      ZETASRF  1" ON UNIT 55 AT TIME STEP883, STRESS PERIOD    1

 HEAD WILL BE SAVED ON UNIT   51 AT END OF TIME STEP  883, STRESS PERIOD    1
 
 SOLVING FOR HEAD 
                                                   Max.-Head-Change                         Max.-Flux-Residual
  Residual-Control   Outer-Iter.   Inner-Iter.     Column Row Layer    Maximum-Head-Change  Column Row Layer    Maximum-Flux-Residual          L2-NORM 
          0                 1           1            27   48     1      -0.8142602447E-03      26   48    1        -0.5308953191E+00      0.3613481688E+01
          0                 2           1            44   31     1      -0.6766435796E-04      45   32    1        -0.1487289723E-01      0.1025543213E+00
          0                 3           1            43   31     2      -0.3273334625E-04      47   30    1        -0.2976983883E-02      0.2527344845E-01
          0                 4           1            19   30     1      -0.1601409020E-04      44   33    1        -0.1296923358E-02      0.1496036221E-01
          0                 5           1            20   28     2      -0.1448032200E-04      15   30    1        -0.1000103088E-02      0.1190310462E-01
          0                 6           1            19   30     1      -0.1035116994E-04      44   33    1        -0.6886960890E-03      0.1030302953E-01
          0                 7           1            22   30     2      -0.1037286079E-04      15   30    1        -0.5977546890E-03      0.9040326921E-02
          0                 8           1            26   30     2      -0.7822662958E-05      44   33    1        -0.5034753128E-03      0.8129684895E-02

    ------------------------------------------------
       NWT REQUIRED            8 OUTER ITERATIONS 
       AND A TOTAL OF          8 INNER ITERATIONS.
    ------------------------------------------------

 OUTPUT CONTROL FOR STRESS PERIOD    1   TIME STEP  884
    SAVE HEAD FOR ALL LAYERS
 SOLVING FOR ZETA FOR LAYER     1 ZONE     2

     600 UPPER PART EQS.       601 LOWER PART EQS.    BAND WIDTH + 1 =   26
 STRESS PERIOD=  1 TIMESTEP=884 LAYER=  1 ZONE=  2 ACTIVE CELLS= 1201 NUMBER OF EQUATIONS=    1201
 SOLVING FOR ZETA FOR LAYER     2 ZONE     2

     621 UPPER PART EQS.       624 LOWER PART EQS.    BAND WIDTH + 1 =   34
 STRESS PERIOD=  1 TIMESTEP=884 LAYER=  2 ZONE=  2 ACTIVE CELLS= 1245 NUMBER OF EQUATIONS=    1245
 UBUDSV SAVING "      ZETASRF  1" ON UNIT 55 AT TIME STEP884, STRESS PERIOD    1

 HEAD WILL BE SAVED ON UNIT   51 AT END OF TIME STEP  884, STRESS PERIOD    1
 
 SOLVING FOR HEAD 
                                                   Max.-Head-Change                         Max.-Flux-Residual
  Residual-Control   Outer-Iter.   Inner-Iter.     Column Row Layer    Maximum-Head-Change  Column Row Layer    Maximum-Flux-Residual          L2-NORM 
          0                 1           1            27   14     1       0.8073516142E-03      36   14    1        -0.5283522659E+00      0.3677888133E+01
          0                 2           1            44   33     1       0.5752461715E-04      45   32    1         0.1440391671E-01      0.9794636558E-01
          0                 3           1            42   32     2       0.2443085721E-04      47   30    1         0.2562865094E-02      0.2305636331E-01
          0                 4           1            19   30     1       0.1192657908E-04      44   33    1         0.1060449463E-02      0.1209917117E-01
          0                 5           1            20   28     2       0.1232267658E-04      16   33    1         0.7370530780E-03      0.9349175021E-02
          0                 6           1            19   30     1       0.8615321717E-05      17   28    1         0.5119805480E-03      0.8056689430E-02

    ------------------------------------------------
       NWT REQUIRED            6 OUTER ITERATIONS 
       AND A TOTAL OF          6 INNER ITERATIONS.
    ------------------------------------------------

 OUTPUT CONTROL FOR STRESS PERIOD    1   TIME STEP  885
    SAVE HEAD FOR ALL LAYERS
 SOLVING FOR ZETA FOR LAYER     1 ZONE     2

     603 UPPER PART EQS.       611 LOWER PART EQS.    BAND WIDTH + 1 =   33
 STRESS PERIOD=  1 TIMESTEP=885 LAYER=  1 ZONE=  2 ACTIVE CELLS= 1214 NUMBER OF EQUATIONS=    1214
 SOLVING FOR ZETA FOR LAYER     2 ZONE     2

     621 UPPER PART EQS.       624 LOWER PART EQS.    BAND WIDTH + 1 =   34
 STRESS PERIOD=  1 TIMESTEP=885 LAYER=  2 ZONE=  2 ACTIVE CELLS= 1245 NUMBER OF EQUATIONS=    1245
 UBUDSV SAVING "      ZETASRF  1" ON UNIT 55 AT TIME STEP885, STRESS PERIOD    1

 HEAD WILL BE SAVED ON UNIT   51 AT END OF TIME STEP  885, STRESS PERIOD    1
 
 SOLVING FOR HEAD 
                                                   Max.-Head-Change                         Max.-Flux-Residual
  Residual-Control   Outer-Iter.   Inner-Iter.     Column Row Layer    Maximum-Head-Change  Column Row Layer    Maximum-Flux-Residual          L2-NORM 
          0                 1           1            48   31     1      -0.6911595382E-03      14   26    1        -0.5290085640E+00      0.3778847256E+01
          0                 2           1            44   33     1      -0.5217313091E-04      45   32    1        -0.1360190430E-01      0.8284195515E-01
          0                 3           1            43   31     2      -0.2676743582E-04      46   31    1        -0.2257544377E-02      0.1899902914E-01
          0                 4           1            44   33     1      -0.9033641366E-05      44   33    1        -0.1020280022E-02      0.8760840864E-02

    ------------------------------------------------
       NWT REQUIRED            4 OUTER ITERATIONS 
       AND A TOTAL OF          4 INNER ITERATIONS.
    ------------------------------------------------

 OUTPUT CONTROL FOR STRESS PERIOD    1   TIME STEP  886
    SAVE HEAD FOR ALL LAYERS
 SOLVING FOR ZETA FOR LAYER     1 ZONE     2

     608 UPPER PART EQS.       594 LOWER PART EQS.    BAND WIDTH + 1 =   33
 STRESS PERIOD=  1 TIMESTEP=886 LAYER=  1 ZONE=  2 ACTIVE CELLS= 1202 NUMBER OF EQUATIONS=    1202
 SOLVING FOR ZETA FOR LAYER     2 ZONE     2

     621 UPPER PART EQS.       624 LOWER PART EQS.    BAND WIDTH + 1 =   34
 STRESS PERIOD=  1 TIMESTEP=886 LAYER=  2 ZONE=  2 ACTIVE CELLS= 1245 NUMBER OF EQUATIONS=    1245
 UBUDSV SAVING "      ZETASRF  1" ON UNIT 55 AT TIME STEP886, STRESS PERIOD    1

 HEAD WILL BE SAVED ON UNIT   51 AT END OF TIME STEP  886, STRESS PERIOD    1
 
 SOLVING FOR HEAD 
                                                   Max.-Head-Change                         Max.-Flux-Residual
  Residual-Control   Outer-Iter.   Inner-Iter.     Column Row Layer    Maximum-Head-Change  Column Row Layer    Maximum-Flux-Residual          L2-NORM 
          0                 1           1            28   13     1       0.7223815510E-03      14   36    1         0.5151243015E+00      0.3633863210E+01
          0                 2           1            45   32     1       0.5063533690E-04      45   32    1         0.1293443401E-01      0.8652623891E-01
          0                 3           1            43   31     2       0.2950147767E-04      46   31    1         0.2164099806E-02      0.2079259133E-01
          0                 4           1            44   33     1       0.1243485456E-04      44   33    1         0.1180149274E-02      0.1125653463E-01
          0                 5           1            42   30     2       0.1165976891E-04      46   31    1         0.7483459405E-03      0.7817064725E-02
          0                 6           1            44   33     1       0.6907034631E-05      44   33    1         0.6072063703E-03      0.6132806874E-02

    ------------------------------------------------
       NWT REQUIRED            6 OUTER ITERATIONS 
       AND A TOTAL OF          6 INNER ITERATIONS.
    ------------------------------------------------

 OUTPUT CONTROL FOR STRESS PERIOD    1   TIME STEP  887
    SAVE HEAD FOR ALL LAYERS
 SOLVING FOR ZETA FOR LAYER     1 ZONE     2

     605 UPPER PART EQS.       612 LOWER PART EQS.    BAND WIDTH + 1 =   32
 STRESS PERIOD=  1 TIMESTEP=887 LAYER=  1 ZONE=  2 ACTIVE CELLS= 1217 NUMBER OF EQUATIONS=    1217
 SOLVING FOR ZETA FOR LAYER     2 ZONE     2

     621 UPPER PART EQS.       624 LOWER PART EQS.    BAND WIDTH + 1 =   34
 STRESS PERIOD=  1 TIMESTEP=887 LAYER=  2 ZONE=  2 ACTIVE CELLS= 1245 NUMBER OF EQUATIONS=    1245
 UBUDSV SAVING "      ZETASRF  1" ON UNIT 55 AT TIME STEP887, STRESS PERIOD    1

 HEAD WILL BE SAVED ON UNIT   51 AT END OF TIME STEP  887, STRESS PERIOD    1
 
 SOLVING FOR HEAD 
                                                   Max.-Head-Change                         Max.-Flux-Residual
  Residual-Control   Outer-Iter.   Inner-Iter.     Column Row Layer    Maximum-Head-Change  Column Row Layer    Maximum-Flux-Residual          L2-NORM 
          0                 1           1            28   48     1       0.6991764934E-03      14   27    1        -0.4540991303E+00      0.3657858751E+01
          0                 2           1            45   32     1      -0.4977840885E-04      31   14    1         0.1530813560E-01      0.8656367084E-01
          0                 3           1            43   31     2      -0.2755110737E-04      46   31    1        -0.2095661051E-02      0.1997079052E-01
          0                 4           1            44   33     1      -0.1233896450E-04      44   33    1        -0.1129125252E-02      0.1083348801E-01
          0                 5           1            42   32     2      -0.1026879811E-04      46   31    1        -0.7381238842E-03      0.7255310080E-02
          0                 6           1            44   33     1      -0.6715142739E-05      44   33    1        -0.5767440188E-03      0.5386785907E-02

    ------------------------------------------------
       NWT REQUIRED            6 OUTER ITERATIONS 
       AND A TOTAL OF          6 INNER ITERATIONS.
    ------------------------------------------------

 OUTPUT CONTROL FOR STRESS PERIOD    1   TIME STEP  888
    SAVE HEAD FOR ALL LAYERS
 SOLVING FOR ZETA FOR LAYER     1 ZONE     2

     605 UPPER PART EQS.       605 LOWER PART EQS.    BAND WIDTH + 1 =   25
 STRESS PERIOD=  1 TIMESTEP=888 LAYER=  1 ZONE=  2 ACTIVE CELLS= 1210 NUMBER OF EQUATIONS=    1210
 SOLVING FOR ZETA FOR LAYER     2 ZONE     2

     621 UPPER PART EQS.       624 LOWER PART EQS.    BAND WIDTH + 1 =   34
 STRESS PERIOD=  1 TIMESTEP=888 LAYER=  2 ZONE=  2 ACTIVE CELLS= 1245 NUMBER OF EQUATIONS=    1245
 UBUDSV SAVING "      ZETASRF  1" ON UNIT 55 AT TIME STEP888, STRESS PERIOD    1

 HEAD WILL BE SAVED ON UNIT   51 AT END OF TIME STEP  888, STRESS PERIOD    1
 
 SOLVING FOR HEAD 
                                                   Max.-Head-Change                         Max.-Flux-Residual
  Residual-Control   Outer-Iter.   Inner-Iter.     Column Row Layer    Maximum-Head-Change  Column Row Layer    Maximum-Flux-Residual          L2-NORM 
          0                 1           1            48   31     1       0.7041159511E-03      26   13    1         0.5305315012E+00      0.3458802582E+01
          0                 2           1            44   31     1       0.6745457786E-04      31   14    1        -0.1720836937E-01      0.1040153080E+00
          0                 3           1            43   31     2       0.3769095206E-04      47   30    1         0.2930434831E-02      0.2685906745E-01
          0                 4           1            44   33     1       0.1778829680E-04      44   33    1         0.1493844427E-02      0.1558872107E-01
          0                 5           1            42   32     2       0.1720013535E-04      47   34    1         0.1112690579E-02      0.1184836889E-01
          0                 6           1            44   33     1       0.1070822892E-04      44   33    1         0.8376075465E-03      0.9936701882E-02
          0                 7           1            42   32     2       0.1201669756E-04      47   34    1         0.6652871688E-03      0.8556732111E-02
          0                 8           1            38   32     2       0.7486156414E-05      44   33    1         0.5810838434E-03      0.7697356611E-02

    ------------------------------------------------
       NWT REQUIRED            8 OUTER ITERATIONS 
       AND A TOTAL OF          8 INNER ITERATIONS.
    ------------------------------------------------

 OUTPUT CONTROL FOR STRESS PERIOD    1   TIME STEP  889
    SAVE HEAD FOR ALL LAYERS
 SOLVING FOR ZETA FOR LAYER     1 ZONE     2

     600 UPPER PART EQS.       613 LOWER PART EQS.    BAND WIDTH + 1 =   33
 STRESS PERIOD=  1 TIMESTEP=889 LAYER=  1 ZONE=  2 ACTIVE CELLS= 1213 NUMBER OF EQUATIONS=    1213
 SOLVING FOR ZETA FOR LAYER     2 ZONE     2

     621 UPPER PART EQS.       626 LOWER PART EQS.    BAND WIDTH + 1 =   34
 STRESS PERIOD=  1 TIMESTEP=889 LAYER=  2 ZONE=  2 ACTIVE CELLS= 1247 NUMBER OF EQUATIONS=    1247
 UBUDSV SAVING "      ZETASRF  1" ON UNIT 55 AT TIME STEP889, STRESS PERIOD    1

 HEAD WILL BE SAVED ON UNIT   51 AT END OF TIME STEP  889, STRESS PERIOD    1
 
 SOLVING FOR HEAD 
                                                   Max.-Head-Change                         Max.-Flux-Residual
  Residual-Control   Outer-Iter.   Inner-Iter.     Column Row Layer    Maximum-Head-Change  Column Row Layer    Maximum-Flux-Residual          L2-NORM 
          0                 1           1            35   48     1      -0.8585577726E-03      36   14    1        -0.5282963039E+00      0.3888336056E+01
          0                 2           1            44   31     1      -0.6762760169E-04      32   49    1        -0.1798430091E-01      0.1148074561E+00
          0                 3           1            43   31     2      -0.3176929916E-04      47   30    1        -0.2996714876E-02      0.2708370925E-01
          0                 4           1            43   30     1      -0.1630008083E-04      44   33    1        -0.1350976081E-02      0.1539585421E-01
          0                 5           1            42   32     2      -0.1512655419E-04      47   30    1        -0.1069506392E-02      0.1222422262E-01
          0                 6           1            44   33     1      -0.1093584864E-04      44   33    1        -0.7704031485E-03      0.1068686312E-01
          0                 7           1            42   32     2      -0.1081379397E-04      47   30    1        -0.6902606929E-03      0.9464406889E-02
          0                 8           1            38   32     2      -0.8704250342E-05      44   33    1        -0.5771058103E-03      0.8542316943E-02

    ------------------------------------------------
       NWT REQUIRED            8 OUTER ITERATIONS 
       AND A TOTAL OF          8 INNER ITERATIONS.
    ------------------------------------------------

 OUTPUT CONTROL FOR STRESS PERIOD    1   TIME STEP  890
    SAVE HEAD FOR ALL LAYERS
 SOLVING FOR ZETA FOR LAYER     1 ZONE     2

     599 UPPER PART EQS.       608 LOWER PART EQS.    BAND WIDTH + 1 =   30
 STRESS PERIOD=  1 TIMESTEP=890 LAYER=  1 ZONE=  2 ACTIVE CELLS= 1207 NUMBER OF EQUATIONS=    1207
 SOLVING FOR ZETA FOR LAYER     2 ZONE     2

     621 UPPER PART EQS.       628 LOWER PART EQS.    BAND WIDTH + 1 =   34
 STRESS PERIOD=  1 TIMESTEP=890 LAYER=  2 ZONE=  2 ACTIVE CELLS= 1249 NUMBER OF EQUATIONS=    1249
 UBUDSV SAVING "      ZETASRF  1" ON UNIT 55 AT TIME STEP890, STRESS PERIOD    1

 HEAD WILL BE SAVED ON UNIT   51 AT END OF TIME STEP  890, STRESS PERIOD    1
 
 SOLVING FOR HEAD 
                                                   Max.-Head-Change                         Max.-Flux-Residual
  Residual-Control   Outer-Iter.   Inner-Iter.     Column Row Layer    Maximum-Head-Change  Column Row Layer    Maximum-Flux-Residual          L2-NORM 
          0                 1           1            35   48     1       0.8594220412E-03      14   26    1        -0.5277575590E+00      0.3910682096E+01
          0                 2           1            32   17     1       0.5583955407E-04      32   49    1         0.1514920078E-01      0.1137124395E+00
          0                 3           1            34   45     1       0.2603529030E-04      34   47    1         0.2861354585E-02      0.2448477585E-01
          0                 4           1            33   20     1       0.1204961413E-04      30   47    1         0.9809342710E-03      0.1178838602E-01
          0                 5           1            31   20     1       0.9814303593E-05      34   15    1         0.6673907008E-03      0.8887759812E-02

    ------------------------------------------------
       NWT REQUIRED            5 OUTER ITERATIONS 
       AND A TOTAL OF          5 INNER ITERATIONS.
    ------------------------------------------------

 OUTPUT CONTROL FOR STRESS PERIOD    1   TIME STEP  891
    SAVE HEAD FOR ALL LAYERS
 SOLVING FOR ZETA FOR LAYER     1 ZONE     2

     607 UPPER PART EQS.       617 LOWER PART EQS.    BAND WIDTH + 1 =   35
 STRESS PERIOD=  1 TIMESTEP=891 LAYER=  1 ZONE=  2 ACTIVE CELLS= 1224 NUMBER OF EQUATIONS=    1224
 SOLVING FOR ZETA FOR LAYER     2 ZONE     2

     621 UPPER PART EQS.       628 LOWER PART EQS.    BAND WIDTH + 1 =   34
 STRESS PERIOD=  1 TIMESTEP=891 LAYER=  2 ZONE=  2 ACTIVE CELLS= 1249 NUMBER OF EQUATIONS=    1249
 UBUDSV SAVING "      ZETASRF  1" ON UNIT 55 AT TIME STEP891, STRESS PERIOD    1

 HEAD WILL BE SAVED ON UNIT   51 AT END OF TIME STEP  891, STRESS PERIOD    1
 
 SOLVING FOR HEAD 
                                                   Max.-Head-Change                         Max.-Flux-Residual
  Residual-Control   Outer-Iter.   Inner-Iter.     Column Row Layer    Maximum-Head-Change  Column Row Layer    Maximum-Flux-Residual          L2-NORM 
          0                 1           1            48   26     1       0.7492557594E-03      14   36    1         0.5138655612E+00      0.3517842552E+01
          0                 2           1            30   47     1      -0.3797815641E-04      45   32    1        -0.1221977667E-01      0.9387963637E-01
          0                 3           1            30   44     2      -0.1633993305E-04      32   45    1        -0.1594121193E-02      0.1661230370E-01
          0                 4           1            30   18     2      -0.7822721082E-05      26   42    2        -0.6036598299E-03      0.7199325648E-02

    ------------------------------------------------
       NWT REQUIRED            4 OUTER ITERATIONS 
       AND A TOTAL OF          4 INNER ITERATIONS.
    ------------------------------------------------

 OUTPUT CONTROL FOR STRESS PERIOD    1   TIME STEP  892
    SAVE HEAD FOR ALL LAYERS
 SOLVING FOR ZETA FOR LAYER     1 ZONE     2

     600 UPPER PART EQS.       597 LOWER PART EQS.    BAND WIDTH + 1 =   26
 STRESS PERIOD=  1 TIMESTEP=892 LAYER=  1 ZONE=  2 ACTIVE CELLS= 1197 NUMBER OF EQUATIONS=    1197
 SOLVING FOR ZETA FOR LAYER     2 ZONE     2

     617 UPPER PART EQS.       628 LOWER PART EQS.    BAND WIDTH + 1 =   34
 STRESS PERIOD=  1 TIMESTEP=892 LAYER=  2 ZONE=  2 ACTIVE CELLS= 1245 NUMBER OF EQUATIONS=    1245
 UBUDSV SAVING "      ZETASRF  1" ON UNIT 55 AT TIME STEP892, STRESS PERIOD    1

 HEAD WILL BE SAVED ON UNIT   51 AT END OF TIME STEP  892, STRESS PERIOD    1
 
 SOLVING FOR HEAD 
                                                   Max.-Head-Change                         Max.-Flux-Residual
  Residual-Control   Outer-Iter.   Inner-Iter.     Column Row Layer    Maximum-Head-Change  Column Row Layer    Maximum-Flux-Residual          L2-NORM 
          0                 1           1            48   31     1       0.6606845887E-03      35   48    1        -0.4546021470E+00      0.3385857928E+01
          0                 2           1            45   32     1       0.4389091138E-04      45   32    1         0.1248620098E-01      0.7844851763E-01
          0                 3           1            43   31     2       0.2169307981E-04      46   31    1         0.1992450247E-02      0.1960386840E-01
          0                 4           1            44   33     1       0.1188843710E-04      44   33    1         0.1054851493E-02      0.1227465235E-01
          0                 5           1            42   32     2       0.1122183140E-04      46   31    1         0.7463989932E-03      0.1037247583E-01
          0                 6           1            38   32     2       0.9090703710E-05      44   33    1         0.6571963240E-03      0.9343826418E-02

    ------------------------------------------------
       NWT REQUIRED            6 OUTER ITERATIONS 
       AND A TOTAL OF          6 INNER ITERATIONS.
    ------------------------------------------------

 OUTPUT CONTROL FOR STRESS PERIOD    1   TIME STEP  893
    SAVE HEAD FOR ALL LAYERS
 SOLVING FOR ZETA FOR LAYER     1 ZONE     2

     610 UPPER PART EQS.       607 LOWER PART EQS.    BAND WIDTH + 1 =   27
 STRESS PERIOD=  1 TIMESTEP=893 LAYER=  1 ZONE=  2 ACTIVE CELLS= 1217 NUMBER OF EQUATIONS=    1217
 SOLVING FOR ZETA FOR LAYER     2 ZONE     2

     613 UPPER PART EQS.       628 LOWER PART EQS.    BAND WIDTH + 1 =   34
 STRESS PERIOD=  1 TIMESTEP=893 LAYER=  2 ZONE=  2 ACTIVE CELLS= 1241 NUMBER OF EQUATIONS=    1241
 UBUDSV SAVING "      ZETASRF  1" ON UNIT 55 AT TIME STEP893, STRESS PERIOD    1

 HEAD WILL BE SAVED ON UNIT   51 AT END OF TIME STEP  893, STRESS PERIOD    1
 
 SOLVING FOR HEAD 
                                                   Max.-Head-Change                         Max.-Flux-Residual
  Residual-Control   Outer-Iter.   Inner-Iter.     Column Row Layer    Maximum-Head-Change  Column Row Layer    Maximum-Flux-Residual          L2-NORM 
          0                 1           1            48   31     1      -0.6678659949E-03      26   13    1         0.5295945432E+00      0.3760458241E+01
          0                 2           1            45   32     1      -0.5012427527E-04      52   29    1         0.1282013461E-01      0.7988414555E-01
          0                 3           1            43   31     2      -0.2524027738E-04      46   31    1        -0.2163280670E-02      0.1872471746E-01
          0                 4           1            44   33     1      -0.1186452901E-04      44   33    1        -0.1113003504E-02      0.1015162150E-01
          0                 5           1            42   30     2      -0.1013999448E-04      46   31    1        -0.7037283247E-03      0.7584938311E-02
          0                 6           1            44   33     1      -0.7224996352E-05      44   33    1        -0.5797293452E-03      0.6389380160E-02

    ------------------------------------------------
       NWT REQUIRED            6 OUTER ITERATIONS 
       AND A TOTAL OF          6 INNER ITERATIONS.
    ------------------------------------------------

 OUTPUT CONTROL FOR STRESS PERIOD    1   TIME STEP  894
    SAVE HEAD FOR ALL LAYERS
 SOLVING FOR ZETA FOR LAYER     1 ZONE     2

     607 UPPER PART EQS.       599 LOWER PART EQS.    BAND WIDTH + 1 =   29
 STRESS PERIOD=  1 TIMESTEP=894 LAYER=  1 ZONE=  2 ACTIVE CELLS= 1206 NUMBER OF EQUATIONS=    1206
 SOLVING FOR ZETA FOR LAYER     2 ZONE     2

     617 UPPER PART EQS.       628 LOWER PART EQS.    BAND WIDTH + 1 =   34
 STRESS PERIOD=  1 TIMESTEP=894 LAYER=  2 ZONE=  2 ACTIVE CELLS= 1245 NUMBER OF EQUATIONS=    1245
 UBUDSV SAVING "      ZETASRF  1" ON UNIT 55 AT TIME STEP894, STRESS PERIOD    1

 HEAD WILL BE SAVED ON UNIT   51 AT END OF TIME STEP  894, STRESS PERIOD    1
 
 SOLVING FOR HEAD 
                                                   Max.-Head-Change                         Max.-Flux-Residual
  Residual-Control   Outer-Iter.   Inner-Iter.     Column Row Layer    Maximum-Head-Change  Column Row Layer    Maximum-Flux-Residual          L2-NORM 
          0                 1           1            48   31     1       0.6991315309E-03      26   48    1         0.5145614930E+00      0.3896023947E+01
          0                 2           1            44   31     1       0.6490548313E-04      45   32    1         0.1422160770E-01      0.9550497999E-01
          0                 3           1            43   31     2       0.3796049079E-04      47   30    1         0.2765460521E-02      0.2381827775E-01
          0                 4           1            44   33     1       0.1449547102E-04      44   33    1         0.1317774991E-02      0.1331578451E-01
          0                 5           1            42   32     2       0.1323719744E-04      47   30    1         0.1052910331E-02      0.9318971873E-02
          0                 6           1            44   33     1       0.8035109897E-05      44   33    1         0.6987921208E-03      0.7223335046E-02

    ------------------------------------------------
       NWT REQUIRED            6 OUTER ITERATIONS 
       AND A TOTAL OF          6 INNER ITERATIONS.
    ------------------------------------------------

 OUTPUT CONTROL FOR STRESS PERIOD    1   TIME STEP  895
    SAVE HEAD FOR ALL LAYERS
 SOLVING FOR ZETA FOR LAYER     1 ZONE     2

     605 UPPER PART EQS.       607 LOWER PART EQS.    BAND WIDTH + 1 =   26
 STRESS PERIOD=  1 TIMESTEP=895 LAYER=  1 ZONE=  2 ACTIVE CELLS= 1212 NUMBER OF EQUATIONS=    1212
 SOLVING FOR ZETA FOR LAYER     2 ZONE     2

     621 UPPER PART EQS.       632 LOWER PART EQS.    BAND WIDTH + 1 =   34
 STRESS PERIOD=  1 TIMESTEP=895 LAYER=  2 ZONE=  2 ACTIVE CELLS= 1253 NUMBER OF EQUATIONS=    1253
 UBUDSV SAVING "      ZETASRF  1" ON UNIT 55 AT TIME STEP895, STRESS PERIOD    1

 HEAD WILL BE SAVED ON UNIT   51 AT END OF TIME STEP  895, STRESS PERIOD    1
 
 SOLVING FOR HEAD 
                                                   Max.-Head-Change                         Max.-Flux-Residual
  Residual-Control   Outer-Iter.   Inner-Iter.     Column Row Layer    Maximum-Head-Change  Column Row Layer    Maximum-Flux-Residual          L2-NORM 
          0                 1           1            48   33     1      -0.7474439625E-03      49   36    1         0.5294515720E+00      0.3671311314E+01
          0                 2           1            44   31     1      -0.7941141178E-04      45   32    1        -0.1536128920E-01      0.1123256458E+00
          0                 3           1            43   31     2      -0.4589288085E-04      47   30    1        -0.3430817190E-02      0.3094052135E-01
          0                 4           1            43   30     1      -0.1670072032E-04      44   33    1        -0.1557944268E-02      0.1667787386E-01
          0                 5           1            16   33     1      -0.1557167178E-04      47   30    1        -0.1149351090E-02      0.1110443014E-01
          0                 6           1            44   31     1      -0.8155302803E-05      44   33    1        -0.7599534475E-03      0.8131660266E-02

    ------------------------------------------------
       NWT REQUIRED            6 OUTER ITERATIONS 
       AND A TOTAL OF          6 INNER ITERATIONS.
    ------------------------------------------------

 OUTPUT CONTROL FOR STRESS PERIOD    1   TIME STEP  896
    SAVE HEAD FOR ALL LAYERS
 SOLVING FOR ZETA FOR LAYER     1 ZONE     2

     594 UPPER PART EQS.       603 LOWER PART EQS.    BAND WIDTH + 1 =   30
 STRESS PERIOD=  1 TIMESTEP=896 LAYER=  1 ZONE=  2 ACTIVE CELLS= 1197 NUMBER OF EQUATIONS=    1197
 SOLVING FOR ZETA FOR LAYER     2 ZONE     2

     621 UPPER PART EQS.       632 LOWER PART EQS.    BAND WIDTH + 1 =   34
 STRESS PERIOD=  1 TIMESTEP=896 LAYER=  2 ZONE=  2 ACTIVE CELLS= 1253 NUMBER OF EQUATIONS=    1253
 UBUDSV SAVING "      ZETASRF  1" ON UNIT 55 AT TIME STEP896, STRESS PERIOD    1

 HEAD WILL BE SAVED ON UNIT   51 AT END OF TIME STEP  896, STRESS PERIOD    1
 
 SOLVING FOR HEAD 
                                                   Max.-Head-Change                         Max.-Flux-Residual
  Residual-Control   Outer-Iter.   Inner-Iter.     Column Row Layer    Maximum-Head-Change  Column Row Layer    Maximum-Flux-Residual          L2-NORM 
          0                 1           1            48   32     1       0.7244756678E-03      14   36    1         0.5124393115E+00      0.3698374035E+01
          0                 2           1            44   31     1       0.6771635593E-04      45   32    1         0.1486318865E-01      0.9385474686E-01
          0                 3           1            42   32     2       0.3661519672E-04      47   30    1         0.2886032585E-02      0.2446847690E-01
          0                 4           1            43   30     1       0.1469526396E-04      44   33    1         0.1334770623E-02      0.1403702903E-01
          0                 5           1            42   32     2       0.1463698588E-04      46   31    1         0.9457570904E-03      0.1095517411E-01
          0                 6           1            43   30     1       0.8528139020E-05      44   33    1         0.7443254800E-03      0.9480778802E-02

    ------------------------------------------------
       NWT REQUIRED            6 OUTER ITERATIONS 
       AND A TOTAL OF          6 INNER ITERATIONS.
    ------------------------------------------------

 OUTPUT CONTROL FOR STRESS PERIOD    1   TIME STEP  897
    SAVE HEAD FOR ALL LAYERS
 SOLVING FOR ZETA FOR LAYER     1 ZONE     2

     605 UPPER PART EQS.       620 LOWER PART EQS.    BAND WIDTH + 1 =   37
 STRESS PERIOD=  1 TIMESTEP=897 LAYER=  1 ZONE=  2 ACTIVE CELLS= 1225 NUMBER OF EQUATIONS=    1225
 SOLVING FOR ZETA FOR LAYER     2 ZONE     2

     621 UPPER PART EQS.       632 LOWER PART EQS.    BAND WIDTH + 1 =   34
 STRESS PERIOD=  1 TIMESTEP=897 LAYER=  2 ZONE=  2 ACTIVE CELLS= 1253 NUMBER OF EQUATIONS=    1253
 UBUDSV SAVING "      ZETASRF  1" ON UNIT 55 AT TIME STEP897, STRESS PERIOD    1

 HEAD WILL BE SAVED ON UNIT   51 AT END OF TIME STEP  897, STRESS PERIOD    1
 
 SOLVING FOR HEAD 
                                                   Max.-Head-Change                         Max.-Flux-Residual
  Residual-Control   Outer-Iter.   Inner-Iter.     Column Row Layer    Maximum-Head-Change  Column Row Layer    Maximum-Flux-Residual          L2-NORM 
          0                 1           1            34   48     1      -0.7559748820E-03      26   48    1        -0.5237311404E+00      0.3915984685E+01
          0                 2           1            44   33     1      -0.5411512961E-04      30   47    1        -0.1627723215E-01      0.1034270105E+00
          0                 3           1            43   31     2      -0.2360192895E-04      46   31    1        -0.2260184286E-02      0.2266636145E-01
          0                 4           1            43   30     1      -0.1055545411E-04      44   33    1        -0.9906364493E-03      0.1317846570E-01
          0                 5           1            20   28     2      -0.1009430638E-04      46   31    1        -0.6785175127E-03      0.1089989992E-01
          0                 6           1            38   34     2      -0.8371928678E-05      44   33    1        -0.5744066324E-03      0.9770410507E-02

    ------------------------------------------------
       NWT REQUIRED            6 OUTER ITERATIONS 
       AND A TOTAL OF          6 INNER ITERATIONS.
    ------------------------------------------------

 OUTPUT CONTROL FOR STRESS PERIOD    1   TIME STEP  898
    SAVE HEAD FOR ALL LAYERS
 SOLVING FOR ZETA FOR LAYER     1 ZONE     2

     605 UPPER PART EQS.       601 LOWER PART EQS.    BAND WIDTH + 1 =   27
 STRESS PERIOD=  1 TIMESTEP=898 LAYER=  1 ZONE=  2 ACTIVE CELLS= 1206 NUMBER OF EQUATIONS=    1206
 SOLVING FOR ZETA FOR LAYER     2 ZONE     2

     621 UPPER PART EQS.       632 LOWER PART EQS.    BAND WIDTH + 1 =   34
 STRESS PERIOD=  1 TIMESTEP=898 LAYER=  2 ZONE=  2 ACTIVE CELLS= 1253 NUMBER OF EQUATIONS=    1253
 UBUDSV SAVING "      ZETASRF  1" ON UNIT 55 AT TIME STEP898, STRESS PERIOD    1

 HEAD WILL BE SAVED ON UNIT   51 AT END OF TIME STEP  898, STRESS PERIOD    1
 
 SOLVING FOR HEAD 
                                                   Max.-Head-Change                         Max.-Flux-Residual
  Residual-Control   Outer-Iter.   Inner-Iter.     Column Row Layer    Maximum-Head-Change  Column Row Layer    Maximum-Flux-Residual          L2-NORM 
          0                 1           1            26   14     1       0.7602199706E-03      36   48    1        -0.5264409645E+00      0.3448715080E+01
          0                 2           1            44   31     1       0.7083010920E-04      30   47    1         0.1537167436E-01      0.1086152131E+00
          0                 3           1            42   32     2       0.3697931514E-04      47   30    1         0.3155955905E-02      0.2938437471E-01
          0                 4           1            43   30     1       0.1685926261E-04      44   33    1         0.1471275038E-02      0.1802682604E-01
          0                 5           1            42   32     2       0.1767012468E-04      47   30    1         0.1116095087E-02      0.1497938965E-01
          0                 6           1            38   32     2       0.1175690511E-04      44   33    1         0.8774848026E-03      0.1339746158E-01
          0                 7           1            33   31     2       0.1387281545E-04      46   31    1         0.7291071048E-03      0.1193021951E-01
          0                 8           1            30   32     2       0.9797490633E-05      44   33    1         0.6967419196E-03      0.1085152281E-01

    ------------------------------------------------
       NWT REQUIRED            8 OUTER ITERATIONS 
       AND A TOTAL OF          8 INNER ITERATIONS.
    ------------------------------------------------

 OUTPUT CONTROL FOR STRESS PERIOD    1   TIME STEP  899
    SAVE HEAD FOR ALL LAYERS
 SOLVING FOR ZETA FOR LAYER     1 ZONE     2

     612 UPPER PART EQS.       621 LOWER PART EQS.    BAND WIDTH + 1 =   32
 STRESS PERIOD=  1 TIMESTEP=899 LAYER=  1 ZONE=  2 ACTIVE CELLS= 1233 NUMBER OF EQUATIONS=    1233
 SOLVING FOR ZETA FOR LAYER     2 ZONE     2

     621 UPPER PART EQS.       632 LOWER PART EQS.    BAND WIDTH + 1 =   34
 STRESS PERIOD=  1 TIMESTEP=899 LAYER=  2 ZONE=  2 ACTIVE CELLS= 1253 NUMBER OF EQUATIONS=    1253
 UBUDSV SAVING "      ZETASRF  1" ON UNIT 55 AT TIME STEP899, STRESS PERIOD    1

 HEAD WILL BE SAVED ON UNIT   51 AT END OF TIME STEP  899, STRESS PERIOD    1
 
 SOLVING FOR HEAD 
                                                   Max.-Head-Change                         Max.-Flux-Residual
  Residual-Control   Outer-Iter.   Inner-Iter.     Column Row Layer    Maximum-Head-Change  Column Row Layer    Maximum-Flux-Residual          L2-NORM 
          0                 1           1            48   34     1      -0.7898794185E-03      36   14    1         0.5124015920E+00      0.3617634534E+01
          0                 2           1            44   31     1      -0.8196299723E-04      10   31    1         0.1564115588E-01      0.1136719343E+00
          0                 3           1            43   31     2      -0.4525571725E-04      47   30    1        -0.3613187935E-02      0.3105210353E-01
          0                 4           1            44   31     1      -0.2021797103E-04      44   33    1        -0.1693105917E-02      0.1890109005E-01
          0                 5           1            42   32     2      -0.1988947997E-04      47   30    1        -0.1294892692E-02      0.1514202838E-01
          0                 6           1            44   31     1      -0.1220923378E-04      44   33    1        -0.9405773506E-03      0.1324262339E-01
          0                 7           1            42   32     2      -0.1361012313E-04      47   30    1        -0.7988706148E-03      0.1163629093E-01
          0                 8           1            38   32     2      -0.9470502681E-05      44   33    1        -0.6850705388E-03      0.1056648202E-01

    ------------------------------------------------
       NWT REQUIRED            8 OUTER ITERATIONS 
       AND A TOTAL OF          8 INNER ITERATIONS.
    ------------------------------------------------

 OUTPUT CONTROL FOR STRESS PERIOD    1   TIME STEP  900
    SAVE HEAD FOR ALL LAYERS
 SOLVING FOR ZETA FOR LAYER     1 ZONE     2

     606 UPPER PART EQS.       596 LOWER PART EQS.    BAND WIDTH + 1 =   27
 STRESS PERIOD=  1 TIMESTEP=900 LAYER=  1 ZONE=  2 ACTIVE CELLS= 1202 NUMBER OF EQUATIONS=    1202
 SOLVING FOR ZETA FOR LAYER     2 ZONE     2

     621 UPPER PART EQS.       628 LOWER PART EQS.    BAND WIDTH + 1 =   34
 STRESS PERIOD=  1 TIMESTEP=900 LAYER=  2 ZONE=  2 ACTIVE CELLS= 1249 NUMBER OF EQUATIONS=    1249
 UBUDSV SAVING "      ZETASRF  1" ON UNIT 55 AT TIME STEP900, STRESS PERIOD    1

 HEAD WILL BE SAVED ON UNIT   51 AT END OF TIME STEP  900, STRESS PERIOD    1
 
 SOLVING FOR HEAD 
                                                   Max.-Head-Change                         Max.-Flux-Residual
  Residual-Control   Outer-Iter.   Inner-Iter.     Column Row Layer    Maximum-Head-Change  Column Row Layer    Maximum-Flux-Residual          L2-NORM 
          0                 1           1            48   33     1       0.7514673207E-03      14   26    1        -0.5256729893E+00      0.4171419989E+01
          0                 2           1            44   31     1       0.6927898025E-04      45   34    1         0.1516086771E-01      0.1062297782E+00
          0                 3           1            43   31     2       0.3330905023E-04      47   30    1         0.3051134211E-02      0.2528009497E-01
          0                 4           1            44   33     1       0.1536443378E-04      44   33    1         0.1381879575E-02      0.1408015045E-01
          0                 5           1            42   32     2       0.1342293194E-04      47   30    1         0.1031531200E-02      0.1092299716E-01
          0                 6           1            44   33     1       0.9513187951E-05      44   33    1         0.7351213353E-03      0.9455336222E-02

    ------------------------------------------------
       NWT REQUIRED            6 OUTER ITERATIONS 
       AND A TOTAL OF          6 INNER ITERATIONS.
    ------------------------------------------------

 OUTPUT CONTROL FOR STRESS PERIOD    1   TIME STEP  901
    SAVE HEAD FOR ALL LAYERS
 SOLVING FOR ZETA FOR LAYER     1 ZONE     2

     613 UPPER PART EQS.       609 LOWER PART EQS.    BAND WIDTH + 1 =   25
 STRESS PERIOD=  1 TIMESTEP=901 LAYER=  1 ZONE=  2 ACTIVE CELLS= 1222 NUMBER OF EQUATIONS=    1222
 SOLVING FOR ZETA FOR LAYER     2 ZONE     2

     621 UPPER PART EQS.       632 LOWER PART EQS.    BAND WIDTH + 1 =   34
 STRESS PERIOD=  1 TIMESTEP=901 LAYER=  2 ZONE=  2 ACTIVE CELLS= 1253 NUMBER OF EQUATIONS=    1253
 UBUDSV SAVING "      ZETASRF  1" ON UNIT 55 AT TIME STEP901, STRESS PERIOD    1

 HEAD WILL BE SAVED ON UNIT   51 AT END OF TIME STEP  901, STRESS PERIOD    1
 
 SOLVING FOR HEAD 
                                                   Max.-Head-Change                         Max.-Flux-Residual
  Residual-Control   Outer-Iter.   Inner-Iter.     Column Row Layer    Maximum-Head-Change  Column Row Layer    Maximum-Flux-Residual          L2-NORM 
          0                 1           1            48   32     1      -0.7128713900E-03      14   36    1         0.5110647140E+00      0.3287837972E+01
          0                 2           1            44   33     1      -0.5267911122E-04      45   32    1        -0.1399541338E-01      0.8374112062E-01
          0                 3           1            43   31     2      -0.2214081041E-04      47   30    1        -0.2138837724E-02      0.1577989500E-01
          0                 4           1            17   31     2      -0.7601183734E-05      44   33    1        -0.7961399626E-03      0.7465606950E-02

    ------------------------------------------------
       NWT REQUIRED            4 OUTER ITERATIONS 
       AND A TOTAL OF          4 INNER ITERATIONS.
    ------------------------------------------------

 OUTPUT CONTROL FOR STRESS PERIOD    1   TIME STEP  902
    SAVE HEAD FOR ALL LAYERS
 SOLVING FOR ZETA FOR LAYER     1 ZONE     2

     615 UPPER PART EQS.       605 LOWER PART EQS.    BAND WIDTH + 1 =   30
 STRESS PERIOD=  1 TIMESTEP=902 LAYER=  1 ZONE=  2 ACTIVE CELLS= 1220 NUMBER OF EQUATIONS=    1220
 SOLVING FOR ZETA FOR LAYER     2 ZONE     2

     621 UPPER PART EQS.       632 LOWER PART EQS.    BAND WIDTH + 1 =   34
 STRESS PERIOD=  1 TIMESTEP=902 LAYER=  2 ZONE=  2 ACTIVE CELLS= 1253 NUMBER OF EQUATIONS=    1253
 UBUDSV SAVING "      ZETASRF  1" ON UNIT 55 AT TIME STEP902, STRESS PERIOD    1

 HEAD WILL BE SAVED ON UNIT   51 AT END OF TIME STEP  902, STRESS PERIOD    1
 
 SOLVING FOR HEAD 
                                                   Max.-Head-Change                         Max.-Flux-Residual
  Residual-Control   Outer-Iter.   Inner-Iter.     Column Row Layer    Maximum-Head-Change  Column Row Layer    Maximum-Flux-Residual          L2-NORM 
          0                 1           1            27   14     1      -0.8311846009E-03      26   48    1        -0.5260834232E+00      0.3816021265E+01
          0                 2           1            44   33     1       0.5739978091E-04      31   50    1         0.1676008268E-01      0.1108023818E+00
          0                 3           1            32   44     2      -0.2744739242E-04      47   30    1         0.2543891572E-02      0.2649728398E-01
          0                 4           1            31   46     1      -0.1106186208E-04      31   46    1        -0.1176443416E-02      0.1258733303E-01
          0                 5           1            32   44     2      -0.8229862208E-05      29   48    1        -0.7656351031E-03      0.7661895855E-02

    ------------------------------------------------
       NWT REQUIRED            5 OUTER ITERATIONS 
       AND A TOTAL OF          5 INNER ITERATIONS.
    ------------------------------------------------

 OUTPUT CONTROL FOR STRESS PERIOD    1   TIME STEP  903
    SAVE HEAD FOR ALL LAYERS
 SOLVING FOR ZETA FOR LAYER     1 ZONE     2

     606 UPPER PART EQS.       607 LOWER PART EQS.    BAND WIDTH + 1 =   28
 STRESS PERIOD=  1 TIMESTEP=903 LAYER=  1 ZONE=  2 ACTIVE CELLS= 1213 NUMBER OF EQUATIONS=    1213
 SOLVING FOR ZETA FOR LAYER     2 ZONE     2

     621 UPPER PART EQS.       632 LOWER PART EQS.    BAND WIDTH + 1 =   34
 STRESS PERIOD=  1 TIMESTEP=903 LAYER=  2 ZONE=  2 ACTIVE CELLS= 1253 NUMBER OF EQUATIONS=    1253
 UBUDSV SAVING "      ZETASRF  1" ON UNIT 55 AT TIME STEP903, STRESS PERIOD    1

 HEAD WILL BE SAVED ON UNIT   51 AT END OF TIME STEP  903, STRESS PERIOD    1
 
 SOLVING FOR HEAD 
                                                   Max.-Head-Change                         Max.-Flux-Residual
  Residual-Control   Outer-Iter.   Inner-Iter.     Column Row Layer    Maximum-Head-Change  Column Row Layer    Maximum-Flux-Residual          L2-NORM 
          0                 1           1            27   14     1       0.8228441400E-03      26   14    1         0.5120264265E+00      0.4057981805E+01
          0                 2           1            44   33     1      -0.5772960742E-04      31   50    1        -0.1631129482E-01      0.1123246656E+00
          0                 3           1            42   32     2      -0.2783378508E-04      47   30    1        -0.2586722886E-02      0.2689610773E-01
          0                 4           1            44   33     1      -0.1106535275E-04      44   33    1        -0.1179751678E-02      0.1264119958E-01
          0                 5           1            16   33     1      -0.8465062421E-05      15   30    1        -0.7625667784E-03      0.7569968717E-02

    ------------------------------------------------
       NWT REQUIRED            5 OUTER ITERATIONS 
       AND A TOTAL OF          5 INNER ITERATIONS.
    ------------------------------------------------

 OUTPUT CONTROL FOR STRESS PERIOD    1   TIME STEP  904
    SAVE HEAD FOR ALL LAYERS
 SOLVING FOR ZETA FOR LAYER     1 ZONE     2

     601 UPPER PART EQS.       601 LOWER PART EQS.    BAND WIDTH + 1 =   24
 STRESS PERIOD=  1 TIMESTEP=904 LAYER=  1 ZONE=  2 ACTIVE CELLS= 1202 NUMBER OF EQUATIONS=    1202
 SOLVING FOR ZETA FOR LAYER     2 ZONE     2

     621 UPPER PART EQS.       632 LOWER PART EQS.    BAND WIDTH + 1 =   34
 STRESS PERIOD=  1 TIMESTEP=904 LAYER=  2 ZONE=  2 ACTIVE CELLS= 1253 NUMBER OF EQUATIONS=    1253
 UBUDSV SAVING "      ZETASRF  1" ON UNIT 55 AT TIME STEP904, STRESS PERIOD    1

 HEAD WILL BE SAVED ON UNIT   51 AT END OF TIME STEP  904, STRESS PERIOD    1
 
 SOLVING FOR HEAD 
                                                   Max.-Head-Change                         Max.-Flux-Residual
  Residual-Control   Outer-Iter.   Inner-Iter.     Column Row Layer    Maximum-Head-Change  Column Row Layer    Maximum-Flux-Residual          L2-NORM 
          0                 1           1            48   33     1       0.7270831646E-03      28   48    1        -0.3953039024E+00      0.3055731798E+01
          0                 2           1            44   31     1       0.7242023426E-04      45   32    1         0.1493682858E-01      0.9463944296E-01
          0                 3           1            42   32     2       0.4251197472E-04      47   30    1         0.3193299506E-02      0.2771500628E-01
          0                 4           1            43   30     1       0.1874516245E-04      44   33    1         0.1606951210E-02      0.1763416455E-01
          0                 5           1            42   32     2       0.2093438165E-04      47   30    1         0.1227386843E-02      0.1458758287E-01
          0                 6           1            38   32     2       0.1217762041E-04      44   33    1         0.1001141535E-02      0.1289903568E-01
          0                 7           1            34   32     2       0.1490499193E-04      47   30    1         0.8033663551E-03      0.1138440857E-01
          0                 8           1            38   32     2       0.9536271452E-05      44   33    1         0.7483154475E-03      0.1036558094E-01

    ------------------------------------------------
       NWT REQUIRED            8 OUTER ITERATIONS 
       AND A TOTAL OF          8 INNER ITERATIONS.
    ------------------------------------------------

 OUTPUT CONTROL FOR STRESS PERIOD    1   TIME STEP  905
    SAVE HEAD FOR ALL LAYERS
 SOLVING FOR ZETA FOR LAYER     1 ZONE     2

     613 UPPER PART EQS.       619 LOWER PART EQS.    BAND WIDTH + 1 =   33
 STRESS PERIOD=  1 TIMESTEP=905 LAYER=  1 ZONE=  2 ACTIVE CELLS= 1232 NUMBER OF EQUATIONS=    1232
 SOLVING FOR ZETA FOR LAYER     2 ZONE     2

     621 UPPER PART EQS.       632 LOWER PART EQS.    BAND WIDTH + 1 =   34
 STRESS PERIOD=  1 TIMESTEP=905 LAYER=  2 ZONE=  2 ACTIVE CELLS= 1253 NUMBER OF EQUATIONS=    1253
 UBUDSV SAVING "      ZETASRF  1" ON UNIT 55 AT TIME STEP905, STRESS PERIOD    1

 HEAD WILL BE SAVED ON UNIT   51 AT END OF TIME STEP  905, STRESS PERIOD    1
 
 SOLVING FOR HEAD 
                                                   Max.-Head-Change                         Max.-Flux-Residual
  Residual-Control   Outer-Iter.   Inner-Iter.     Column Row Layer    Maximum-Head-Change  Column Row Layer    Maximum-Flux-Residual          L2-NORM 
          0                 1           1            48   35     1      -0.8889462519E-03      14   36    1        -0.5244774695E+00      0.3760371129E+01
          0                 2           1            44   31     1      -0.9429187095E-04      45   36    1        -0.1787815148E-01      0.1337362443E+00
          0                 3           1            42   32     2      -0.5578128142E-04      47   30    1        -0.4054308349E-02      0.3868918329E-01
          0                 4           1            43   30     1      -0.2560755543E-04      44   29    1        -0.2067337854E-02      0.2401664802E-01
          0                 5           1            42   32     2      -0.2835690728E-04      47   30    1        -0.1489352841E-02      0.1955946143E-01
          0                 6           1            44   31     1      -0.1555470407E-04      44   29    1        -0.1235726066E-02      0.1714099680E-01
          0                 7           1            41   31     2      -0.2096935693E-04      47   30    1        -0.9238119515E-03      0.1505530420E-01
          0                 8           1            38   32     2      -0.1185541647E-04      44   29    1        -0.9402088866E-03      0.1365549587E-01
          0                 9           1            34   32     2      -0.1713395800E-04      42   34    2        -0.6848364342E-03      0.1205722419E-01
          0                10           1            38   32     2      -0.9330862709E-05      44   29    1        -0.7551072197E-03      0.1100829197E-01

    ------------------------------------------------
       NWT REQUIRED           10 OUTER ITERATIONS 
       AND A TOTAL OF         10 INNER ITERATIONS.
    ------------------------------------------------

 OUTPUT CONTROL FOR STRESS PERIOD    1   TIME STEP  906
    SAVE HEAD FOR ALL LAYERS
 SOLVING FOR ZETA FOR LAYER     1 ZONE     2

     604 UPPER PART EQS.       599 LOWER PART EQS.    BAND WIDTH + 1 =   26
 STRESS PERIOD=  1 TIMESTEP=906 LAYER=  1 ZONE=  2 ACTIVE CELLS= 1203 NUMBER OF EQUATIONS=    1203
 SOLVING FOR ZETA FOR LAYER     2 ZONE     2

     621 UPPER PART EQS.       632 LOWER PART EQS.    BAND WIDTH + 1 =   34
 STRESS PERIOD=  1 TIMESTEP=906 LAYER=  2 ZONE=  2 ACTIVE CELLS= 1253 NUMBER OF EQUATIONS=    1253
 UBUDSV SAVING "      ZETASRF  1" ON UNIT 55 AT TIME STEP906, STRESS PERIOD    1

 HEAD WILL BE SAVED ON UNIT   51 AT END OF TIME STEP  906, STRESS PERIOD    1
 
 SOLVING FOR HEAD 
                                                   Max.-Head-Change                         Max.-Flux-Residual
  Residual-Control   Outer-Iter.   Inner-Iter.     Column Row Layer    Maximum-Head-Change  Column Row Layer    Maximum-Flux-Residual          L2-NORM 
          0                 1           1            48   35     1       0.8832242938E-03      26   48    1        -0.5240753382E+00      0.3940642669E+01
          0                 2           1            44   31     1       0.9467386138E-04      45   36    1         0.1772748597E-01      0.1337979290E+00
          0                 3           1            42   32     2       0.5432696132E-04      47   30    1         0.4099190676E-02      0.3851760420E-01
          0                 4           1            44   31     1       0.2513271031E-04      44   29    1         0.2028862644E-02      0.2330202022E-01
          0                 5           1            42   32     2       0.2735626206E-04      47   30    1         0.1467646313E-02      0.1869336200E-01
          0                 6           1            44   31     1       0.1500555032E-04      44   29    1         0.1180361084E-02      0.1627436316E-01
          0                 7           1            41   31     2       0.2026361904E-04      47   30    1         0.8900268314E-03      0.1424759801E-01
          0                 8           1            38   32     2       0.1125033240E-04      44   29    1         0.8855409807E-03      0.1292100539E-01
          0                 9           1            34   32     2       0.1636569251E-04      42   30    2         0.6435233485E-03      0.1138058938E-01
          0                10           1            38   32     2       0.8793522240E-05      44   29    1         0.7050379158E-03      0.1040222946E-01

    ------------------------------------------------
       NWT REQUIRED           10 OUTER ITERATIONS 
       AND A TOTAL OF         10 INNER ITERATIONS.
    ------------------------------------------------

 OUTPUT CONTROL FOR STRESS PERIOD    1   TIME STEP  907
    SAVE HEAD FOR ALL LAYERS
 SOLVING FOR ZETA FOR LAYER     1 ZONE     2

     610 UPPER PART EQS.       607 LOWER PART EQS.    BAND WIDTH + 1 =   25
 STRESS PERIOD=  1 TIMESTEP=907 LAYER=  1 ZONE=  2 ACTIVE CELLS= 1217 NUMBER OF EQUATIONS=    1217
 SOLVING FOR ZETA FOR LAYER     2 ZONE     2

     621 UPPER PART EQS.       632 LOWER PART EQS.    BAND WIDTH + 1 =   34
 STRESS PERIOD=  1 TIMESTEP=907 LAYER=  2 ZONE=  2 ACTIVE CELLS= 1253 NUMBER OF EQUATIONS=    1253
 UBUDSV SAVING "      ZETASRF  1" ON UNIT 55 AT TIME STEP907, STRESS PERIOD    1

 HEAD WILL BE SAVED ON UNIT   51 AT END OF TIME STEP  907, STRESS PERIOD    1
 
 SOLVING FOR HEAD 
                                                   Max.-Head-Change                         Max.-Flux-Residual
  Residual-Control   Outer-Iter.   Inner-Iter.     Column Row Layer    Maximum-Head-Change  Column Row Layer    Maximum-Flux-Residual          L2-NORM 
          0                 1           1            48   33     1      -0.7220751240E-03      36   49    1         0.5276926653E+00      0.3681291403E+01
          0                 2           1            44   31     1      -0.6777259344E-04      45   32    1        -0.1458918746E-01      0.1046522373E+00
          0                 3           1            42   32     2      -0.3109017255E-04      47   30    1        -0.3099568958E-02      0.2652109196E-01
          0                 4           1            44   33     1      -0.1528679978E-04      44   33    1        -0.1362418173E-02      0.1504303606E-01
          0                 5           1            42   32     2      -0.1445163342E-04      47   30    1        -0.1016221765E-02      0.1205918347E-01
          0                 6           1            44   33     1      -0.1013529373E-04      44   33    1        -0.7598332038E-03      0.1066600774E-01
          0                 7           1            40   31     1      -0.1046366091E-04      46   31    1        -0.6528785770E-03      0.9477120163E-02
          0                 8           1            38   32     2      -0.8139189030E-05      44   33    1        -0.5861319155E-03      0.8606006037E-02

    ------------------------------------------------
       NWT REQUIRED            8 OUTER ITERATIONS 
       AND A TOTAL OF          8 INNER ITERATIONS.
    ------------------------------------------------

 OUTPUT CONTROL FOR STRESS PERIOD    1   TIME STEP  908
    SAVE HEAD FOR ALL LAYERS
 SOLVING FOR ZETA FOR LAYER     1 ZONE     2

     597 UPPER PART EQS.       607 LOWER PART EQS.    BAND WIDTH + 1 =   31
 STRESS PERIOD=  1 TIMESTEP=908 LAYER=  1 ZONE=  2 ACTIVE CELLS= 1204 NUMBER OF EQUATIONS=    1204
 SOLVING FOR ZETA FOR LAYER     2 ZONE     2

     621 UPPER PART EQS.       630 LOWER PART EQS.    BAND WIDTH + 1 =   34
 STRESS PERIOD=  1 TIMESTEP=908 LAYER=  2 ZONE=  2 ACTIVE CELLS= 1251 NUMBER OF EQUATIONS=    1251
 UBUDSV SAVING "      ZETASRF  1" ON UNIT 55 AT TIME STEP908, STRESS PERIOD    1

 HEAD WILL BE SAVED ON UNIT   51 AT END OF TIME STEP  908, STRESS PERIOD    1
 
 SOLVING FOR HEAD 
                                                   Max.-Head-Change                         Max.-Flux-Residual
  Residual-Control   Outer-Iter.   Inner-Iter.     Column Row Layer    Maximum-Head-Change  Column Row Layer    Maximum-Flux-Residual          L2-NORM 
          0                 1           1            48   32     1       0.7091919945E-03      36   14    1         0.5094237823E+00      0.3649032602E+01
          0                 2           1            44   33     1       0.5692702507E-04      45   32    1         0.1414593554E-01      0.9535069470E-01
          0                 3           1            42   32     2       0.2406246349E-04      47   30    1         0.2574105061E-02      0.2393458723E-01
          0                 4           1            19   30     1       0.1173261679E-04      44   33    1         0.1114912097E-02      0.1364298492E-01
          0                 5           1            20   28     2       0.1204625464E-04      15   30    1         0.7820093020E-03      0.1116938251E-01
          0                 6           1            25   27     2       0.9313977935E-05      44   33    1         0.6375702812E-03      0.9985441360E-02

    ------------------------------------------------
       NWT REQUIRED            6 OUTER ITERATIONS 
       AND A TOTAL OF          6 INNER ITERATIONS.
    ------------------------------------------------

 OUTPUT CONTROL FOR STRESS PERIOD    1   TIME STEP  909
    SAVE HEAD FOR ALL LAYERS
 SOLVING FOR ZETA FOR LAYER     1 ZONE     2

     611 UPPER PART EQS.       617 LOWER PART EQS.    BAND WIDTH + 1 =   28
 STRESS PERIOD=  1 TIMESTEP=909 LAYER=  1 ZONE=  2 ACTIVE CELLS= 1228 NUMBER OF EQUATIONS=    1228
 SOLVING FOR ZETA FOR LAYER     2 ZONE     2

     621 UPPER PART EQS.       630 LOWER PART EQS.    BAND WIDTH + 1 =   34
 STRESS PERIOD=  1 TIMESTEP=909 LAYER=  2 ZONE=  2 ACTIVE CELLS= 1251 NUMBER OF EQUATIONS=    1251
 UBUDSV SAVING "      ZETASRF  1" ON UNIT 55 AT TIME STEP909, STRESS PERIOD    1

 HEAD WILL BE SAVED ON UNIT   51 AT END OF TIME STEP  909, STRESS PERIOD    1
 
 SOLVING FOR HEAD 
                                                   Max.-Head-Change                         Max.-Flux-Residual
  Residual-Control   Outer-Iter.   Inner-Iter.     Column Row Layer    Maximum-Head-Change  Column Row Layer    Maximum-Flux-Residual          L2-NORM 
          0                 1           1            48   32     1      -0.7051742091E-03      35   14    1         0.4389800706E+00      0.3294695564E+01
          0                 2           1            44   33     1      -0.5414734660E-04      45   32    1        -0.1400627974E-01      0.7904934270E-01
          0                 3           1            43   31     2      -0.2404934615E-04      47   30    1        -0.2250866469E-02      0.1655469299E-01
          0                 4           1            44   33     1      -0.8765321603E-05      44   33    1        -0.9390357353E-03      0.7856272827E-02

    ------------------------------------------------
       NWT REQUIRED            4 OUTER ITERATIONS 
       AND A TOTAL OF          4 INNER ITERATIONS.
    ------------------------------------------------

 OUTPUT CONTROL FOR STRESS PERIOD    1   TIME STEP  910
    SAVE HEAD FOR ALL LAYERS
 SOLVING FOR ZETA FOR LAYER     1 ZONE     2

     596 UPPER PART EQS.       600 LOWER PART EQS.    BAND WIDTH + 1 =   27
 STRESS PERIOD=  1 TIMESTEP=910 LAYER=  1 ZONE=  2 ACTIVE CELLS= 1196 NUMBER OF EQUATIONS=    1196
 SOLVING FOR ZETA FOR LAYER     2 ZONE     2

     621 UPPER PART EQS.       628 LOWER PART EQS.    BAND WIDTH + 1 =   34
 STRESS PERIOD=  1 TIMESTEP=910 LAYER=  2 ZONE=  2 ACTIVE CELLS= 1249 NUMBER OF EQUATIONS=    1249
 UBUDSV SAVING "      ZETASRF  1" ON UNIT 55 AT TIME STEP910, STRESS PERIOD    1

 HEAD WILL BE SAVED ON UNIT   51 AT END OF TIME STEP  910, STRESS PERIOD    1
 
 SOLVING FOR HEAD 
                                                   Max.-Head-Change                         Max.-Flux-Residual
  Residual-Control   Outer-Iter.   Inner-Iter.     Column Row Layer    Maximum-Head-Change  Column Row Layer    Maximum-Flux-Residual          L2-NORM 
          0                 1           1            26   49     1       0.7268192577E-03      49   26    1         0.5269029358E+00      0.3806974393E+01
          0                 2           1            44   33     1       0.5838953483E-04      45   32    1         0.1417804648E-01      0.9292602099E-01
          0                 3           1            43   31     2       0.2837067834E-04      47   30    1         0.2513387204E-02      0.2023903620E-01
          0                 4           1            44   33     1       0.1227266439E-04      44   33    1         0.1146278372E-02      0.1018023438E-01
          0                 5           1            42   32     2       0.1009646265E-04      46   31    1         0.7505449412E-03      0.6923228403E-02
          0                 6           1            44   33     1       0.6911422650E-05      44   33    1         0.5764609323E-03      0.5321170257E-02

    ------------------------------------------------
       NWT REQUIRED            6 OUTER ITERATIONS 
       AND A TOTAL OF          6 INNER ITERATIONS.
    ------------------------------------------------

 OUTPUT CONTROL FOR STRESS PERIOD    1   TIME STEP  911
    SAVE HEAD FOR ALL LAYERS
 SOLVING FOR ZETA FOR LAYER     1 ZONE     2

     601 UPPER PART EQS.       616 LOWER PART EQS.    BAND WIDTH + 1 =   38
 STRESS PERIOD=  1 TIMESTEP=911 LAYER=  1 ZONE=  2 ACTIVE CELLS= 1217 NUMBER OF EQUATIONS=    1217
 SOLVING FOR ZETA FOR LAYER     2 ZONE     2

     621 UPPER PART EQS.       628 LOWER PART EQS.    BAND WIDTH + 1 =   34
 STRESS PERIOD=  1 TIMESTEP=911 LAYER=  2 ZONE=  2 ACTIVE CELLS= 1249 NUMBER OF EQUATIONS=    1249
 UBUDSV SAVING "      ZETASRF  1" ON UNIT 55 AT TIME STEP911, STRESS PERIOD    1

 HEAD WILL BE SAVED ON UNIT   51 AT END OF TIME STEP  911, STRESS PERIOD    1
 
 SOLVING FOR HEAD 
                                                   Max.-Head-Change                         Max.-Flux-Residual
  Residual-Control   Outer-Iter.   Inner-Iter.     Column Row Layer    Maximum-Head-Change  Column Row Layer    Maximum-Flux-Residual          L2-NORM 
          0                 1           1            26   14     1       0.7529132040E-03      26   48    1         0.5090830600E+00      0.3863003665E+01
          0                 2           1            44   31     1      -0.7004574261E-04      45   34    1        -0.1481801868E-01      0.1091642035E+00
          0                 3           1            43   31     2      -0.3748423340E-04      47   30    1        -0.3182717212E-02      0.2718996085E-01
          0                 4           1            44   33     1      -0.1769467327E-04      44   33    1        -0.1497804734E-02      0.1504696104E-01
          0                 5           1            42   32     2      -0.1517112044E-04      47   30    1        -0.1211869728E-02      0.1068961022E-01
          0                 6           1            44   33     1      -0.1039529593E-04      44   33    1        -0.8153373018E-03      0.8421351468E-02
          0                 7           1            42   32     2      -0.9773512215E-05      47   30    1        -0.6880144510E-03      0.6952630929E-02

    ------------------------------------------------
       NWT REQUIRED            7 OUTER ITERATIONS 
       AND A TOTAL OF          7 INNER ITERATIONS.
    ------------------------------------------------

 OUTPUT CONTROL FOR STRESS PERIOD    1   TIME STEP  912
    SAVE HEAD FOR ALL LAYERS
 SOLVING FOR ZETA FOR LAYER     1 ZONE     2

     601 UPPER PART EQS.       605 LOWER PART EQS.    BAND WIDTH + 1 =   28
 STRESS PERIOD=  1 TIMESTEP=912 LAYER=  1 ZONE=  2 ACTIVE CELLS= 1206 NUMBER OF EQUATIONS=    1206
 SOLVING FOR ZETA FOR LAYER     2 ZONE     2

     621 UPPER PART EQS.       624 LOWER PART EQS.    BAND WIDTH + 1 =   34
 STRESS PERIOD=  1 TIMESTEP=912 LAYER=  2 ZONE=  2 ACTIVE CELLS= 1245 NUMBER OF EQUATIONS=    1245
 UBUDSV SAVING "      ZETASRF  1" ON UNIT 55 AT TIME STEP912, STRESS PERIOD    1

 HEAD WILL BE SAVED ON UNIT   51 AT END OF TIME STEP  912, STRESS PERIOD    1
 
 SOLVING FOR HEAD 
                                                   Max.-Head-Change                         Max.-Flux-Residual
  Residual-Control   Outer-Iter.   Inner-Iter.     Column Row Layer    Maximum-Head-Change  Column Row Layer    Maximum-Flux-Residual          L2-NORM 
          0                 1           1            48   34     1       0.7856000325E-03      36   14    1        -0.5234777487E+00      0.3628966236E+01
          0                 2           1            44   31     1       0.8169846394E-04      45   34    1         0.1546865377E-01      0.1079455526E+00
          0                 3           1            43   31     2       0.4871500627E-04      47   30    1         0.3544670780E-02      0.3006538521E-01
          0                 4           1            44   31     1       0.1860099610E-04      44   33    1         0.1659747015E-02      0.1747267131E-01
          0                 5           1            42   32     2       0.1884672773E-04      47   30    1         0.1293124794E-02      0.1283589267E-01
          0                 6           1            44   31     1       0.1042175604E-04      44   33    1         0.9075275549E-03      0.1043579021E-01
          0                 7           1            42   32     2       0.1257569024E-04      47   30    1         0.6806788986E-03      0.8753738628E-02
          0                 8           1            38   32     2       0.6929821246E-05      44   33    1         0.5856999186E-03      0.7780658886E-02

    ------------------------------------------------
       NWT REQUIRED            8 OUTER ITERATIONS 
       AND A TOTAL OF          8 INNER ITERATIONS.
    ------------------------------------------------

 OUTPUT CONTROL FOR STRESS PERIOD    1   TIME STEP  913
    SAVE HEAD FOR ALL LAYERS
 SOLVING FOR ZETA FOR LAYER     1 ZONE     2

     604 UPPER PART EQS.       611 LOWER PART EQS.    BAND WIDTH + 1 =   29
 STRESS PERIOD=  1 TIMESTEP=913 LAYER=  1 ZONE=  2 ACTIVE CELLS= 1215 NUMBER OF EQUATIONS=    1215
 SOLVING FOR ZETA FOR LAYER     2 ZONE     2

     621 UPPER PART EQS.       624 LOWER PART EQS.    BAND WIDTH + 1 =   34
 STRESS PERIOD=  1 TIMESTEP=913 LAYER=  2 ZONE=  2 ACTIVE CELLS= 1245 NUMBER OF EQUATIONS=    1245
 UBUDSV SAVING "      ZETASRF  1" ON UNIT 55 AT TIME STEP913, STRESS PERIOD    1

 HEAD WILL BE SAVED ON UNIT   51 AT END OF TIME STEP  913, STRESS PERIOD    1
 
 SOLVING FOR HEAD 
                                                   Max.-Head-Change                         Max.-Flux-Residual
  Residual-Control   Outer-Iter.   Inner-Iter.     Column Row Layer    Maximum-Head-Change  Column Row Layer    Maximum-Flux-Residual          L2-NORM 
          0                 1           1            48   33     1      -0.7180968803E-03      36   48    1         0.5090592064E+00      0.3336609929E+01
          0                 2           1            44   31     1      -0.6579720020E-04      10   31    1         0.1463859743E-01      0.8837781410E-01
          0                 3           1            43   31     2      -0.3315318673E-04      47   30    1        -0.2842438440E-02      0.2210102483E-01
          0                 4           1            19   30     1      -0.1216458209E-04      44   33    1        -0.1195024979E-02      0.1147834534E-01
          0                 5           1            16   33     1      -0.1042532518E-04      46   31    1        -0.8660912053E-03      0.7441440232E-02
          0                 6           1            19   30     1      -0.5948423833E-05      44   33    1        -0.5333297078E-03      0.5300527623E-02

    ------------------------------------------------
       NWT REQUIRED            6 OUTER ITERATIONS 
       AND A TOTAL OF          6 INNER ITERATIONS.
    ------------------------------------------------

 OUTPUT CONTROL FOR STRESS PERIOD    1   TIME STEP  914
    SAVE HEAD FOR ALL LAYERS
 SOLVING FOR ZETA FOR LAYER     1 ZONE     2

     608 UPPER PART EQS.       599 LOWER PART EQS.    BAND WIDTH + 1 =   28
 STRESS PERIOD=  1 TIMESTEP=914 LAYER=  1 ZONE=  2 ACTIVE CELLS= 1207 NUMBER OF EQUATIONS=    1207
 SOLVING FOR ZETA FOR LAYER     2 ZONE     2

     617 UPPER PART EQS.       624 LOWER PART EQS.    BAND WIDTH + 1 =   34
 STRESS PERIOD=  1 TIMESTEP=914 LAYER=  2 ZONE=  2 ACTIVE CELLS= 1241 NUMBER OF EQUATIONS=    1241
 UBUDSV SAVING "      ZETASRF  1" ON UNIT 55 AT TIME STEP914, STRESS PERIOD    1

 HEAD WILL BE SAVED ON UNIT   51 AT END OF TIME STEP  914, STRESS PERIOD    1
 
 SOLVING FOR HEAD 
                                                   Max.-Head-Change                         Max.-Flux-Residual
  Residual-Control   Outer-Iter.   Inner-Iter.     Column Row Layer    Maximum-Head-Change  Column Row Layer    Maximum-Flux-Residual          L2-NORM 
          0                 1           1            48   32     1       0.6946510659E-03      26   48    1        -0.5218979189E+00      0.3813012009E+01
          0                 2           1            44   31     1       0.5352858047E-04      45   32    1         0.1384435078E-01      0.7967544740E-01
          0                 3           1            43   31     2       0.2765805938E-04      47   30    1         0.2282323892E-02      0.1719479001E-01
          0                 4           1            19   33     2       0.1018323773E-04      44   33    1         0.9723867683E-03      0.9173549556E-02
          0                 5           1            17   32     1       0.8806864441E-05      46   31    1         0.6620532601E-03      0.6304164246E-02

    ------------------------------------------------
       NWT REQUIRED            5 OUTER ITERATIONS 
       AND A TOTAL OF          5 INNER ITERATIONS.
    ------------------------------------------------

 OUTPUT CONTROL FOR STRESS PERIOD    1   TIME STEP  915
    SAVE HEAD FOR ALL LAYERS
 SOLVING FOR ZETA FOR LAYER     1 ZONE     2

     610 UPPER PART EQS.       613 LOWER PART EQS.    BAND WIDTH + 1 =   27
 STRESS PERIOD=  1 TIMESTEP=915 LAYER=  1 ZONE=  2 ACTIVE CELLS= 1223 NUMBER OF EQUATIONS=    1223
 SOLVING FOR ZETA FOR LAYER     2 ZONE     2

     621 UPPER PART EQS.       624 LOWER PART EQS.    BAND WIDTH + 1 =   34
 STRESS PERIOD=  1 TIMESTEP=915 LAYER=  2 ZONE=  2 ACTIVE CELLS= 1245 NUMBER OF EQUATIONS=    1245
 UBUDSV SAVING "      ZETASRF  1" ON UNIT 55 AT TIME STEP915, STRESS PERIOD    1

 HEAD WILL BE SAVED ON UNIT   51 AT END OF TIME STEP  915, STRESS PERIOD    1
 
 SOLVING FOR HEAD 
                                                   Max.-Head-Change                         Max.-Flux-Residual
  Residual-Control   Outer-Iter.   Inner-Iter.     Column Row Layer    Maximum-Head-Change  Column Row Layer    Maximum-Flux-Residual          L2-NORM 
          0                 1           1            48   32     1      -0.7134845978E-03      14   26    1        -0.5224660384E+00      0.3875953244E+01
          0                 2           1            44   31     1      -0.6712343890E-04      45   32    1        -0.1465876844E-01      0.9547676358E-01
          0                 3           1            42   32     2      -0.3838754272E-04      47   30    1        -0.2874785305E-02      0.2516978000E-01
          0                 4           1            19   30     1      -0.1461988106E-04      44   33    1        -0.1366527107E-02      0.1431460980E-01
          0                 5           1            16   33     1      -0.1490268238E-04      47   30    1        -0.9841991597E-03      0.1075378242E-01
          0                 6           1            19   30     1      -0.8494699869E-05      44   33    1        -0.7264011271E-03      0.8984328927E-02

    ------------------------------------------------
       NWT REQUIRED            6 OUTER ITERATIONS 
       AND A TOTAL OF          6 INNER ITERATIONS.
    ------------------------------------------------

 OUTPUT CONTROL FOR STRESS PERIOD    1   TIME STEP  916
    SAVE HEAD FOR ALL LAYERS
 SOLVING FOR ZETA FOR LAYER     1 ZONE     2

     594 UPPER PART EQS.       603 LOWER PART EQS.    BAND WIDTH + 1 =   31
 STRESS PERIOD=  1 TIMESTEP=916 LAYER=  1 ZONE=  2 ACTIVE CELLS= 1197 NUMBER OF EQUATIONS=    1197
 SOLVING FOR ZETA FOR LAYER     2 ZONE     2

     621 UPPER PART EQS.       624 LOWER PART EQS.    BAND WIDTH + 1 =   34
 STRESS PERIOD=  1 TIMESTEP=916 LAYER=  2 ZONE=  2 ACTIVE CELLS= 1245 NUMBER OF EQUATIONS=    1245
 UBUDSV SAVING "      ZETASRF  1" ON UNIT 55 AT TIME STEP916, STRESS PERIOD    1

 HEAD WILL BE SAVED ON UNIT   51 AT END OF TIME STEP  916, STRESS PERIOD    1
 
 SOLVING FOR HEAD 
                                                   Max.-Head-Change                         Max.-Flux-Residual
  Residual-Control   Outer-Iter.   Inner-Iter.     Column Row Layer    Maximum-Head-Change  Column Row Layer    Maximum-Flux-Residual          L2-NORM 
          0                 1           1            48   33     1       0.7370459254E-03      36   49    1         0.5213244739E+00      0.3710656670E+01
          0                 2           1            44   31     1       0.8341761506E-04      45   32    1         0.1532194015E-01      0.1152767995E+00
          0                 3           1            42   32     2       0.4758655063E-04      47   30    1         0.3658800238E-02      0.3318893873E-01
          0                 4           1            44   31     1       0.1919586583E-04      44   33    1         0.1749680573E-02      0.1853974398E-01
          0                 5           1            20   30     2       0.1962757843E-04      47   30    1         0.1224179611E-02      0.1377402290E-01
          0                 6           1            19   30     1       0.1028438843E-04      44   33    1         0.9058991853E-03      0.1138594627E-01
          0                 7           1            21   31     2       0.1401991011E-04      47   30    1         0.6330019405E-03      0.9685876833E-02
          0                 8           1            26   30     2       0.7008674514E-05      44   33    1         0.6260819045E-03      0.8700763466E-02

    ------------------------------------------------
       NWT REQUIRED            8 OUTER ITERATIONS 
       AND A TOTAL OF          8 INNER ITERATIONS.
    ------------------------------------------------

 OUTPUT CONTROL FOR STRESS PERIOD    1   TIME STEP  917
    SAVE HEAD FOR ALL LAYERS
 SOLVING FOR ZETA FOR LAYER     1 ZONE     2

     604 UPPER PART EQS.       617 LOWER PART EQS.    BAND WIDTH + 1 =   34
 STRESS PERIOD=  1 TIMESTEP=917 LAYER=  1 ZONE=  2 ACTIVE CELLS= 1221 NUMBER OF EQUATIONS=    1221
 SOLVING FOR ZETA FOR LAYER     2 ZONE     2

     621 UPPER PART EQS.       626 LOWER PART EQS.    BAND WIDTH + 1 =   34
 STRESS PERIOD=  1 TIMESTEP=917 LAYER=  2 ZONE=  2 ACTIVE CELLS= 1247 NUMBER OF EQUATIONS=    1247
 UBUDSV SAVING "      ZETASRF  1" ON UNIT 55 AT TIME STEP917, STRESS PERIOD    1

 HEAD WILL BE SAVED ON UNIT   51 AT END OF TIME STEP  917, STRESS PERIOD    1
 
 SOLVING FOR HEAD 
                                                   Max.-Head-Change                         Max.-Flux-Residual
  Residual-Control   Outer-Iter.   Inner-Iter.     Column Row Layer    Maximum-Head-Change  Column Row Layer    Maximum-Flux-Residual          L2-NORM 
          0                 1           1            48   34     1      -0.7807851585E-03      36   48    1         0.5072724249E+00      0.3685069069E+01
          0                 2           1            44   31     1      -0.8113150675E-04      45   34    1        -0.1534352176E-01      0.1057852246E+00
          0                 3           1            43   31     2      -0.4789488126E-04      47   30    1        -0.3541800662E-02      0.2902656550E-01
          0                 4           1            44   31     1      -0.1787769837E-04      44   33    1        -0.1640325117E-02      0.1625116877E-01
          0                 5           1            42   32     2      -0.1704966285E-04      47   30    1        -0.1236690291E-02      0.1141820617E-01
          0                 6           1            44   31     1      -0.9137739556E-05      44   33    1        -0.8271545684E-03      0.8914358569E-02

    ------------------------------------------------
       NWT REQUIRED            6 OUTER ITERATIONS 
       AND A TOTAL OF          6 INNER ITERATIONS.
    ------------------------------------------------

 OUTPUT CONTROL FOR STRESS PERIOD    1   TIME STEP  918
    SAVE HEAD FOR ALL LAYERS
 SOLVING FOR ZETA FOR LAYER     1 ZONE     2

     599 UPPER PART EQS.       610 LOWER PART EQS.    BAND WIDTH + 1 =   31
 STRESS PERIOD=  1 TIMESTEP=918 LAYER=  1 ZONE=  2 ACTIVE CELLS= 1209 NUMBER OF EQUATIONS=    1209
 SOLVING FOR ZETA FOR LAYER     2 ZONE     2

     619 UPPER PART EQS.       628 LOWER PART EQS.    BAND WIDTH + 1 =   34
 STRESS PERIOD=  1 TIMESTEP=918 LAYER=  2 ZONE=  2 ACTIVE CELLS= 1247 NUMBER OF EQUATIONS=    1247
 UBUDSV SAVING "      ZETASRF  1" ON UNIT 55 AT TIME STEP918, STRESS PERIOD    1

 HEAD WILL BE SAVED ON UNIT   51 AT END OF TIME STEP  918, STRESS PERIOD    1
 
 SOLVING FOR HEAD 
                                                   Max.-Head-Change                         Max.-Flux-Residual
  Residual-Control   Outer-Iter.   Inner-Iter.     Column Row Layer    Maximum-Head-Change  Column Row Layer    Maximum-Flux-Residual          L2-NORM 
          0                 1           1            48   34     1       0.7832523286E-03      26   48    1        -0.5180673464E+00      0.3814795578E+01
          0                 2           1            44   31     1       0.8153424898E-04      45   34    1         0.1540140969E-01      0.1108159896E+00
          0                 3           1            43   31     2       0.4600503792E-04      47   30    1         0.3561451005E-02      0.2992531186E-01
          0                 4           1            44   31     1       0.1841955865E-04      44   33    1         0.1648309873E-02      0.1638141174E-01
          0                 5           1            42   32     2       0.1763272067E-04      47   30    1         0.1234284788E-02      0.1156993273E-01
          0                 6           1            44   31     1       0.1005158423E-04      44   33    1         0.8517467215E-03      0.9127992557E-02
          0                 7           1            42   32     2       0.1131679224E-04      47   30    1         0.6414450175E-03      0.7445287018E-02
          0                 8           1            44   31     1       0.6423787202E-05      44   33    1         0.5265303990E-03      0.6511950708E-02

    ------------------------------------------------
       NWT REQUIRED            8 OUTER ITERATIONS 
       AND A TOTAL OF          8 INNER ITERATIONS.
    ------------------------------------------------

 OUTPUT CONTROL FOR STRESS PERIOD    1   TIME STEP  919
    SAVE HEAD FOR ALL LAYERS
 SOLVING FOR ZETA FOR LAYER     1 ZONE     2

     608 UPPER PART EQS.       611 LOWER PART EQS.    BAND WIDTH + 1 =   30
 STRESS PERIOD=  1 TIMESTEP=919 LAYER=  1 ZONE=  2 ACTIVE CELLS= 1219 NUMBER OF EQUATIONS=    1219
 SOLVING FOR ZETA FOR LAYER     2 ZONE     2

     621 UPPER PART EQS.       628 LOWER PART EQS.    BAND WIDTH + 1 =   34
 STRESS PERIOD=  1 TIMESTEP=919 LAYER=  2 ZONE=  2 ACTIVE CELLS= 1249 NUMBER OF EQUATIONS=    1249
 UBUDSV SAVING "      ZETASRF  1" ON UNIT 55 AT TIME STEP919, STRESS PERIOD    1

 HEAD WILL BE SAVED ON UNIT   51 AT END OF TIME STEP  919, STRESS PERIOD    1
 
 SOLVING FOR HEAD 
                                                   Max.-Head-Change                         Max.-Flux-Residual
  Residual-Control   Outer-Iter.   Inner-Iter.     Column Row Layer    Maximum-Head-Change  Column Row Layer    Maximum-Flux-Residual          L2-NORM 
          0                 1           1            26   14     1       0.7560211918E-03      14   36    1        -0.5175463575E+00      0.3518381757E+01
          0                 2           1            44   31     1      -0.7923823449E-04      45   32    1        -0.1515977072E-01      0.1095339538E+00
          0                 3           1            43   31     2      -0.4585856741E-04      47   30    1        -0.3430268550E-02      0.3033047569E-01
          0                 4           1            43   30     1      -0.1744452475E-04      44   33    1        -0.1586128517E-02      0.1656723698E-01
          0                 5           1            42   32     2      -0.1597638408E-04      47   30    1        -0.1218237835E-02      0.1138724266E-01
          0                 6           1            44   31     1      -0.9090047860E-05      44   33    1        -0.7971506783E-03      0.8669707036E-02

    ------------------------------------------------
       NWT REQUIRED            6 OUTER ITERATIONS 
       AND A TOTAL OF          6 INNER ITERATIONS.
    ------------------------------------------------

 OUTPUT CONTROL FOR STRESS PERIOD    1   TIME STEP  920
    SAVE HEAD FOR ALL LAYERS
 SOLVING FOR ZETA FOR LAYER     1 ZONE     2

     602 UPPER PART EQS.       605 LOWER PART EQS.    BAND WIDTH + 1 =   28
 STRESS PERIOD=  1 TIMESTEP=920 LAYER=  1 ZONE=  2 ACTIVE CELLS= 1207 NUMBER OF EQUATIONS=    1207
 SOLVING FOR ZETA FOR LAYER     2 ZONE     2

     619 UPPER PART EQS.       628 LOWER PART EQS.    BAND WIDTH + 1 =   34
 STRESS PERIOD=  1 TIMESTEP=920 LAYER=  2 ZONE=  2 ACTIVE CELLS= 1247 NUMBER OF EQUATIONS=    1247
 UBUDSV SAVING "      ZETASRF  1" ON UNIT 55 AT TIME STEP920, STRESS PERIOD    1

 HEAD WILL BE SAVED ON UNIT   51 AT END OF TIME STEP  920, STRESS PERIOD    1
 
 SOLVING FOR HEAD 
                                                   Max.-Head-Change                         Max.-Flux-Residual
  Residual-Control   Outer-Iter.   Inner-Iter.     Column Row Layer    Maximum-Head-Change  Column Row Layer    Maximum-Flux-Residual          L2-NORM 
          0                 1           1            35   14     1      -0.7804143459E-03      36   14    1        -0.5175083654E+00      0.4099059707E+01
          0                 2           1            44   31     1       0.6607737525E-04      33   14    1         0.1561633630E-01      0.1031761410E+00
          0                 3           1            42   32     2       0.3318139191E-04      47   30    1         0.2736545773E-02      0.2594490177E-01
          0                 4           1            19   30     1       0.1318560629E-04      44   33    1         0.1187999391E-02      0.1275059110E-01
          0                 5           1            16   33     1       0.1182366325E-04      15   30    1         0.8832005986E-03      0.8137337874E-02
          0                 6           1            19   30     1       0.6482490740E-05      13   34    1         0.5264461269E-03      0.5694027210E-02

    ------------------------------------------------
       NWT REQUIRED            6 OUTER ITERATIONS 
       AND A TOTAL OF          6 INNER ITERATIONS.
    ------------------------------------------------

 OUTPUT CONTROL FOR STRESS PERIOD    1   TIME STEP  921
    SAVE HEAD FOR ALL LAYERS
 SOLVING FOR ZETA FOR LAYER     1 ZONE     2

     612 UPPER PART EQS.       611 LOWER PART EQS.    BAND WIDTH + 1 =   28
 STRESS PERIOD=  1 TIMESTEP=921 LAYER=  1 ZONE=  2 ACTIVE CELLS= 1223 NUMBER OF EQUATIONS=    1223
 SOLVING FOR ZETA FOR LAYER     2 ZONE     2

     621 UPPER PART EQS.       632 LOWER PART EQS.    BAND WIDTH + 1 =   34
 STRESS PERIOD=  1 TIMESTEP=921 LAYER=  2 ZONE=  2 ACTIVE CELLS= 1253 NUMBER OF EQUATIONS=    1253
 UBUDSV SAVING "      ZETASRF  1" ON UNIT 55 AT TIME STEP921, STRESS PERIOD    1

 HEAD WILL BE SAVED ON UNIT   51 AT END OF TIME STEP  921, STRESS PERIOD    1
 
 SOLVING FOR HEAD 
                                                   Max.-Head-Change                         Max.-Flux-Residual
  Residual-Control   Outer-Iter.   Inner-Iter.     Column Row Layer    Maximum-Head-Change  Column Row Layer    Maximum-Flux-Residual          L2-NORM 
          0                 1           1            36   14     1       0.7729555507E-03      36   48    1         0.5069387058E+00      0.3712612555E+01
          0                 2           1            44   33     1      -0.5590700689E-04      45   32    1        -0.1408049748E-01      0.9412150346E-01
          0                 3           1            43   31     2      -0.2723276843E-04      47   30    1        -0.2398834370E-02      0.2089822459E-01
          0                 4           1            20   32     2      -0.9609380844E-05      44   33    1        -0.1027563105E-02      0.9700028449E-02

    ------------------------------------------------
       NWT REQUIRED            4 OUTER ITERATIONS 
       AND A TOTAL OF          4 INNER ITERATIONS.
    ------------------------------------------------

 OUTPUT CONTROL FOR STRESS PERIOD    1   TIME STEP  922
    SAVE HEAD FOR ALL LAYERS
 SOLVING FOR ZETA FOR LAYER     1 ZONE     2

     613 UPPER PART EQS.       595 LOWER PART EQS.    BAND WIDTH + 1 =   37
 STRESS PERIOD=  1 TIMESTEP=922 LAYER=  1 ZONE=  2 ACTIVE CELLS= 1208 NUMBER OF EQUATIONS=    1208
 SOLVING FOR ZETA FOR LAYER     2 ZONE     2

     621 UPPER PART EQS.       632 LOWER PART EQS.    BAND WIDTH + 1 =   34
 STRESS PERIOD=  1 TIMESTEP=922 LAYER=  2 ZONE=  2 ACTIVE CELLS= 1253 NUMBER OF EQUATIONS=    1253
 UBUDSV SAVING "      ZETASRF  1" ON UNIT 55 AT TIME STEP922, STRESS PERIOD    1

 HEAD WILL BE SAVED ON UNIT   51 AT END OF TIME STEP  922, STRESS PERIOD    1
 
 SOLVING FOR HEAD 
                                                   Max.-Head-Change                         Max.-Flux-Residual
  Residual-Control   Outer-Iter.   Inner-Iter.     Column Row Layer    Maximum-Head-Change  Column Row Layer    Maximum-Flux-Residual          L2-NORM 
          0                 1           1            48   33     1       0.7183470168E-03      26   14    1        -0.5206358051E+00      0.3274134688E+01
          0                 2           1            44   31     1       0.6961235567E-04      45   32    1         0.1468123454E-01      0.8982112156E-01
          0                 3           1            42   32     2       0.4026586935E-04      47   30    1         0.3028629351E-02      0.2447264214E-01
          0                 4           1            43   30     1       0.1663744038E-04      44   33    1         0.1462117567E-02      0.1490204679E-01
          0                 5           1            42   32     2       0.1806966267E-04      47   30    1         0.1100763156E-02      0.1197599401E-01
          0                 6           1            44   33     1       0.1022069061E-04      44   33    1         0.8653663147E-03      0.1047505382E-01
          0                 7           1            41   31     2       0.1247269504E-04      47   30    1         0.6842122741E-03      0.9183425520E-02
          0                 8           1            38   32     2       0.7708112698E-05      44   33    1         0.6302794025E-03      0.8362376719E-02

    ------------------------------------------------
       NWT REQUIRED            8 OUTER ITERATIONS 
       AND A TOTAL OF          8 INNER ITERATIONS.
    ------------------------------------------------

 OUTPUT CONTROL FOR STRESS PERIOD    1   TIME STEP  923
    SAVE HEAD FOR ALL LAYERS
 SOLVING FOR ZETA FOR LAYER     1 ZONE     2

     616 UPPER PART EQS.       618 LOWER PART EQS.    BAND WIDTH + 1 =   32
 STRESS PERIOD=  1 TIMESTEP=923 LAYER=  1 ZONE=  2 ACTIVE CELLS= 1234 NUMBER OF EQUATIONS=    1234
 SOLVING FOR ZETA FOR LAYER     2 ZONE     2

     621 UPPER PART EQS.       632 LOWER PART EQS.    BAND WIDTH + 1 =   34
 STRESS PERIOD=  1 TIMESTEP=923 LAYER=  2 ZONE=  2 ACTIVE CELLS= 1253 NUMBER OF EQUATIONS=    1253
 UBUDSV SAVING "      ZETASRF  1" ON UNIT 55 AT TIME STEP923, STRESS PERIOD    1

 HEAD WILL BE SAVED ON UNIT   51 AT END OF TIME STEP  923, STRESS PERIOD    1
 
 SOLVING FOR HEAD 
                                                   Max.-Head-Change                         Max.-Flux-Residual
  Residual-Control   Outer-Iter.   Inner-Iter.     Column Row Layer    Maximum-Head-Change  Column Row Layer    Maximum-Flux-Residual          L2-NORM 
          0                 1           1            48   35     1      -0.8808231992E-03      14   36    1        -0.5165696563E+00      0.4052102945E+01
          0                 2           1            44   31     1      -0.9427208834E-04      45   36    1        -0.1778048667E-01      0.1295156432E+00
          0                 3           1            42   32     2      -0.5772073826E-04      47   30    1        -0.4101815965E-02      0.3981477654E-01
          0                 4           1            43   30     1      -0.2675875416E-04      44   29    1        -0.2138913645E-02      0.2578221753E-01
          0                 5           1            42   32     2      -0.3048279440E-04      47   34    1        -0.1628562576E-02      0.2134593455E-01
          0                 6           1            38   32     2      -0.1691560459E-04      44   29    1        -0.1343001775E-02      0.1884235494E-01
          0                 7           1            41   31     2      -0.2296120772E-04      47   30    1        -0.1016708634E-02      0.1660137945E-01
          0                 8           1            38   32     2      -0.1292944551E-04      44   29    1        -0.1046896441E-02      0.1508706399E-01
          0                 9           1            34   32     2      -0.1932532048E-04      42   30    2        -0.7443313837E-03      0.1331243866E-01
          0                10           1            38   32     2      -0.1009581691E-04      44   29    1        -0.8543439586E-03      0.1217057456E-01
                                                   Max.-Head-Change                         Max.-Flux-Residual
  Residual-Control   Outer-Iter.   Inner-Iter.     Column Row Layer    Maximum-Head-Change  Column Row Layer    Maximum-Flux-Residual          L2-NORM 
          0                11           1            33   31     2      -0.1598820711E-04      42   30    2        -0.5878969695E-03      0.1071763204E-01
          0                12           1            38   32     2      -0.7975471775E-05      44   29    1        -0.7027327299E-03      0.9814991857E-02

    ------------------------------------------------
       NWT REQUIRED           12 OUTER ITERATIONS 
       AND A TOTAL OF         12 INNER ITERATIONS.
    ------------------------------------------------

 OUTPUT CONTROL FOR STRESS PERIOD    1   TIME STEP  924
    SAVE HEAD FOR ALL LAYERS
 SOLVING FOR ZETA FOR LAYER     1 ZONE     2

     602 UPPER PART EQS.       600 LOWER PART EQS.    BAND WIDTH + 1 =   24
 STRESS PERIOD=  1 TIMESTEP=924 LAYER=  1 ZONE=  2 ACTIVE CELLS= 1202 NUMBER OF EQUATIONS=    1202
 SOLVING FOR ZETA FOR LAYER     2 ZONE     2

     621 UPPER PART EQS.       630 LOWER PART EQS.    BAND WIDTH + 1 =   34
 STRESS PERIOD=  1 TIMESTEP=924 LAYER=  2 ZONE=  2 ACTIVE CELLS= 1251 NUMBER OF EQUATIONS=    1251
 UBUDSV SAVING "      ZETASRF  1" ON UNIT 55 AT TIME STEP924, STRESS PERIOD    1

 HEAD WILL BE SAVED ON UNIT   51 AT END OF TIME STEP  924, STRESS PERIOD    1
 
 SOLVING FOR HEAD 
                                                   Max.-Head-Change                         Max.-Flux-Residual
  Residual-Control   Outer-Iter.   Inner-Iter.     Column Row Layer    Maximum-Head-Change  Column Row Layer    Maximum-Flux-Residual          L2-NORM 
          0                 1           1            48   35     1       0.8777982580E-03      14   26    1         0.5057440237E+00      0.4001514941E+01
          0                 2           1            44   31     1       0.9627068274E-04      45   36    1         0.1771439373E-01      0.1377627724E+00
          0                 3           1            42   32     2       0.5414105049E-04      47   30    1         0.4274835864E-02      0.4264813541E-01
          0                 4           1            43   30     1       0.2750365735E-04      44   33    1         0.2150991793E-02      0.2777668598E-01
          0                 5           1            42   32     2       0.3129053817E-04      47   30    1         0.1601958168E-02      0.2337647929E-01
          0                 6           1            38   32     2       0.1813379550E-04      44   33    1         0.1381523639E-02      0.2089997764E-01
          0                 7           1            34   32     2       0.2513336577E-04      47   30    1         0.1059714415E-02      0.1848906253E-01
          0                 8           1            38   32     2       0.1401089220E-04      44   33    1         0.1114469130E-02      0.1684635173E-01
          0                 9           1            33   31     2       0.2167875343E-04      42   30    2         0.7920128002E-03      0.1486346666E-01
          0                10           1            38   32     2       0.1104219832E-04      44   33    1         0.9184614724E-03      0.1358198236E-01
                                                   Max.-Head-Change                         Max.-Flux-Residual
  Residual-Control   Outer-Iter.   Inner-Iter.     Column Row Layer    Maximum-Head-Change  Column Row Layer    Maximum-Flux-Residual          L2-NORM 
          0                11           1            33   31     2       0.1783443296E-04      42   30    2         0.6327547064E-03      0.1196598055E-01
          0                12           1            31   31     2       0.8879908471E-05      44   33    1         0.7533507738E-03      0.1094212945E-01

    ------------------------------------------------
       NWT REQUIRED           12 OUTER ITERATIONS 
       AND A TOTAL OF         12 INNER ITERATIONS.
    ------------------------------------------------

 OUTPUT CONTROL FOR STRESS PERIOD    1   TIME STEP  925
    SAVE HEAD FOR ALL LAYERS
 SOLVING FOR ZETA FOR LAYER     1 ZONE     2

     608 UPPER PART EQS.       616 LOWER PART EQS.    BAND WIDTH + 1 =   31
 STRESS PERIOD=  1 TIMESTEP=925 LAYER=  1 ZONE=  2 ACTIVE CELLS= 1224 NUMBER OF EQUATIONS=    1224
 SOLVING FOR ZETA FOR LAYER     2 ZONE     2

     621 UPPER PART EQS.       632 LOWER PART EQS.    BAND WIDTH + 1 =   34
 STRESS PERIOD=  1 TIMESTEP=925 LAYER=  2 ZONE=  2 ACTIVE CELLS= 1253 NUMBER OF EQUATIONS=    1253
 UBUDSV SAVING "      ZETASRF  1" ON UNIT 55 AT TIME STEP925, STRESS PERIOD    1

 HEAD WILL BE SAVED ON UNIT   51 AT END OF TIME STEP  925, STRESS PERIOD    1
 
 SOLVING FOR HEAD 
                                                   Max.-Head-Change                         Max.-Flux-Residual
  Residual-Control   Outer-Iter.   Inner-Iter.     Column Row Layer    Maximum-Head-Change  Column Row Layer    Maximum-Flux-Residual          L2-NORM 
          0                 1           1            48   33     1      -0.7137245419E-03      34   13    1         0.4115858666E+00      0.3158045758E+01
          0                 2           1            44   31     1      -0.6526962234E-04      45   32    1        -0.1441260664E-01      0.9209238838E-01
          0                 3           1            43   31     2      -0.3021171168E-04      47   30    1        -0.2876186622E-02      0.2200167861E-01
          0                 4           1            44   33     1      -0.1339742905E-04      44   33    1        -0.1228747259E-02      0.1182813577E-01
          0                 5           1            42   32     2      -0.1140197822E-04      47   30    1        -0.9053496121E-03      0.9064096607E-02
          0                 6           1            44   33     1      -0.7982549953E-05      44   33    1        -0.6181125224E-03      0.7772272513E-02

    ------------------------------------------------
       NWT REQUIRED            6 OUTER ITERATIONS 
       AND A TOTAL OF          6 INNER ITERATIONS.
    ------------------------------------------------

 OUTPUT CONTROL FOR STRESS PERIOD    1   TIME STEP  926
    SAVE HEAD FOR ALL LAYERS
 SOLVING FOR ZETA FOR LAYER     1 ZONE     2

     604 UPPER PART EQS.       612 LOWER PART EQS.    BAND WIDTH + 1 =   30
 STRESS PERIOD=  1 TIMESTEP=926 LAYER=  1 ZONE=  2 ACTIVE CELLS= 1216 NUMBER OF EQUATIONS=    1216
 SOLVING FOR ZETA FOR LAYER     2 ZONE     2

     621 UPPER PART EQS.       632 LOWER PART EQS.    BAND WIDTH + 1 =   34
 STRESS PERIOD=  1 TIMESTEP=926 LAYER=  2 ZONE=  2 ACTIVE CELLS= 1253 NUMBER OF EQUATIONS=    1253
 UBUDSV SAVING "      ZETASRF  1" ON UNIT 55 AT TIME STEP926, STRESS PERIOD    1

 HEAD WILL BE SAVED ON UNIT   51 AT END OF TIME STEP  926, STRESS PERIOD    1
 
 SOLVING FOR HEAD 
                                                   Max.-Head-Change                         Max.-Flux-Residual
  Residual-Control   Outer-Iter.   Inner-Iter.     Column Row Layer    Maximum-Head-Change  Column Row Layer    Maximum-Flux-Residual          L2-NORM 
          0                 1           1            26   49     1       0.7154178172E-03      26   48    1        -0.5167103654E+00      0.3747679792E+01
          0                 2           1            44   33     1       0.5336812240E-04      29   48    1         0.1460082706E-01      0.9372964488E-01
          0                 3           1            43   31     2       0.2454458558E-04      46   31    1         0.2187528864E-02      0.1820466919E-01
          0                 4           1            19   31     2       0.8267164005E-05      44   33    1         0.8488998128E-03      0.8558862435E-02

    ------------------------------------------------
       NWT REQUIRED            4 OUTER ITERATIONS 
       AND A TOTAL OF          4 INNER ITERATIONS.
    ------------------------------------------------

 OUTPUT CONTROL FOR STRESS PERIOD    1   TIME STEP  927
    SAVE HEAD FOR ALL LAYERS
 SOLVING FOR ZETA FOR LAYER     1 ZONE     2

     611 UPPER PART EQS.       617 LOWER PART EQS.    BAND WIDTH + 1 =   31
 STRESS PERIOD=  1 TIMESTEP=927 LAYER=  1 ZONE=  2 ACTIVE CELLS= 1228 NUMBER OF EQUATIONS=    1228
 SOLVING FOR ZETA FOR LAYER     2 ZONE     2

     621 UPPER PART EQS.       632 LOWER PART EQS.    BAND WIDTH + 1 =   34
 STRESS PERIOD=  1 TIMESTEP=927 LAYER=  2 ZONE=  2 ACTIVE CELLS= 1253 NUMBER OF EQUATIONS=    1253
 UBUDSV SAVING "      ZETASRF  1" ON UNIT 55 AT TIME STEP927, STRESS PERIOD    1

 HEAD WILL BE SAVED ON UNIT   51 AT END OF TIME STEP  927, STRESS PERIOD    1
 
 SOLVING FOR HEAD 
                                                   Max.-Head-Change                         Max.-Flux-Residual
  Residual-Control   Outer-Iter.   Inner-Iter.     Column Row Layer    Maximum-Head-Change  Column Row Layer    Maximum-Flux-Residual          L2-NORM 
          0                 1           1            26   14     1       0.7488043519E-03      14   26    1        -0.5161573127E+00      0.3821295825E+01
          0                 2           1            44   31     1      -0.6805934824E-04      45   32    1        -0.1459195430E-01      0.1048016767E+00
          0                 3           1            42   32     2      -0.3841166308E-04      47   30    1        -0.2995412441E-02      0.2751010234E-01
          0                 4           1            43   30     1      -0.1562774341E-04      44   33    1        -0.1444975822E-02      0.1468199673E-01
          0                 5           1            42   32     2      -0.1386850191E-04      47   30    1        -0.1051163807E-02      0.1020617737E-01
          0                 6           1            43   30     1      -0.8061381156E-05      44   33    1        -0.7188865373E-03      0.8004293410E-02

    ------------------------------------------------
       NWT REQUIRED            6 OUTER ITERATIONS 
       AND A TOTAL OF          6 INNER ITERATIONS.
    ------------------------------------------------

 OUTPUT CONTROL FOR STRESS PERIOD    1   TIME STEP  928
    SAVE HEAD FOR ALL LAYERS
 SOLVING FOR ZETA FOR LAYER     1 ZONE     2

     597 UPPER PART EQS.       602 LOWER PART EQS.    BAND WIDTH + 1 =   31
 STRESS PERIOD=  1 TIMESTEP=928 LAYER=  1 ZONE=  2 ACTIVE CELLS= 1199 NUMBER OF EQUATIONS=    1199
 SOLVING FOR ZETA FOR LAYER     2 ZONE     2

     621 UPPER PART EQS.       630 LOWER PART EQS.    BAND WIDTH + 1 =   34
 STRESS PERIOD=  1 TIMESTEP=928 LAYER=  2 ZONE=  2 ACTIVE CELLS= 1251 NUMBER OF EQUATIONS=    1251
 UBUDSV SAVING "      ZETASRF  1" ON UNIT 55 AT TIME STEP928, STRESS PERIOD    1

 HEAD WILL BE SAVED ON UNIT   51 AT END OF TIME STEP  928, STRESS PERIOD    1
 
 SOLVING FOR HEAD 
                                                   Max.-Head-Change                         Max.-Flux-Residual
  Residual-Control   Outer-Iter.   Inner-Iter.     Column Row Layer    Maximum-Head-Change  Column Row Layer    Maximum-Flux-Residual          L2-NORM 
          0                 1           1            48   33     1       0.7314616678E-03      14   36    1         0.5045530895E+00      0.3446117836E+01
          0                 2           1            44   31     1       0.8258627345E-04      45   32    1         0.1520121991E-01      0.1047669436E+00
          0                 3           1            42   32     2       0.4965749021E-04      47   30    1         0.3610200842E-02      0.3221068847E-01
          0                 4           1            43   30     1       0.1992225746E-04      44   33    1         0.1801376842E-02      0.1886145201E-01
          0                 5           1            42   32     2       0.2254533795E-04      47   30    1         0.1286974077E-02      0.1439878084E-01
          0                 6           1            44   33     1       0.1128307137E-04      44   33    1         0.1037683838E-02      0.1207722193E-01
          0                 7           1            41   31     2       0.1612033316E-04      47   30    1         0.7177878755E-03      0.1032703261E-01
          0                 8           1            38   32     2       0.7694406917E-05      44   33    1         0.7384132738E-03      0.9292437545E-02

    ------------------------------------------------
       NWT REQUIRED            8 OUTER ITERATIONS 
       AND A TOTAL OF          8 INNER ITERATIONS.
    ------------------------------------------------

 OUTPUT CONTROL FOR STRESS PERIOD    1   TIME STEP  929
    SAVE HEAD FOR ALL LAYERS
 SOLVING FOR ZETA FOR LAYER     1 ZONE     2

     612 UPPER PART EQS.       611 LOWER PART EQS.    BAND WIDTH + 1 =   27
 STRESS PERIOD=  1 TIMESTEP=929 LAYER=  1 ZONE=  2 ACTIVE CELLS= 1223 NUMBER OF EQUATIONS=    1223
 SOLVING FOR ZETA FOR LAYER     2 ZONE     2

     621 UPPER PART EQS.       632 LOWER PART EQS.    BAND WIDTH + 1 =   34
 STRESS PERIOD=  1 TIMESTEP=929 LAYER=  2 ZONE=  2 ACTIVE CELLS= 1253 NUMBER OF EQUATIONS=    1253
 UBUDSV SAVING "      ZETASRF  1" ON UNIT 55 AT TIME STEP929, STRESS PERIOD    1

 HEAD WILL BE SAVED ON UNIT   51 AT END OF TIME STEP  929, STRESS PERIOD    1
 
 SOLVING FOR HEAD 
                                                   Max.-Head-Change                         Max.-Flux-Residual
  Residual-Control   Outer-Iter.   Inner-Iter.     Column Row Layer    Maximum-Head-Change  Column Row Layer    Maximum-Flux-Residual          L2-NORM 
          0                 1           1            48   34     1      -0.7786125344E-03      26   48    1        -0.5116533683E+00      0.3773332807E+01
          0                 2           1            44   31     1      -0.8064685106E-04      45   34    1        -0.1529974768E-01      0.1119064758E+00
          0                 3           1            43   31     2      -0.4632491759E-04      47   30    1        -0.3536588947E-02      0.3075559072E-01
          0                 4           1            44   31     1      -0.1988234489E-04      44   33    1        -0.1681486311E-02      0.1865492342E-01
          0                 5           1            42   32     2      -0.2072630468E-04      47   30    1        -0.1283737404E-02      0.1491653308E-01
          0                 6           1            44   33     1      -0.1202309399E-04      44   33    1        -0.9624342704E-03      0.1299288134E-01
          0                 7           1            41   31     2      -0.1462092170E-04      47   30    1        -0.7831366997E-03      0.1134867043E-01
          0                 8           1            38   32     2      -0.9050857300E-05      44   33    1        -0.6981657102E-03      0.1032109474E-01

    ------------------------------------------------
       NWT REQUIRED            8 OUTER ITERATIONS 
       AND A TOTAL OF          8 INNER ITERATIONS.
    ------------------------------------------------

 OUTPUT CONTROL FOR STRESS PERIOD    1   TIME STEP  930
    SAVE HEAD FOR ALL LAYERS
 SOLVING FOR ZETA FOR LAYER     1 ZONE     2

     606 UPPER PART EQS.       603 LOWER PART EQS.    BAND WIDTH + 1 =   27
 STRESS PERIOD=  1 TIMESTEP=930 LAYER=  1 ZONE=  2 ACTIVE CELLS= 1209 NUMBER OF EQUATIONS=    1209
 SOLVING FOR ZETA FOR LAYER     2 ZONE     2

     621 UPPER PART EQS.       632 LOWER PART EQS.    BAND WIDTH + 1 =   34
 STRESS PERIOD=  1 TIMESTEP=930 LAYER=  2 ZONE=  2 ACTIVE CELLS= 1253 NUMBER OF EQUATIONS=    1253
 UBUDSV SAVING "      ZETASRF  1" ON UNIT 55 AT TIME STEP930, STRESS PERIOD    1

 HEAD WILL BE SAVED ON UNIT   51 AT END OF TIME STEP  930, STRESS PERIOD    1
 
 SOLVING FOR HEAD 
                                                   Max.-Head-Change                         Max.-Flux-Residual
  Residual-Control   Outer-Iter.   Inner-Iter.     Column Row Layer    Maximum-Head-Change  Column Row Layer    Maximum-Flux-Residual          L2-NORM 
          0                 1           1            48   34     1       0.7784355056E-03      36   14    1        -0.5149058302E+00      0.3624251769E+01
          0                 2           1            44   31     1       0.8048099581E-04      45   34    1         0.1531756181E-01      0.1105878970E+00
          0                 3           1            43   31     2       0.4371199467E-04      47   30    1         0.3525797572E-02      0.2954620168E-01
          0                 4           1            44   31     1       0.1873052479E-04      44   33    1         0.1594772249E-02      0.1733622835E-01
          0                 5           1            42   32     2       0.1785757538E-04      47   30    1         0.1212069971E-02      0.1360945155E-01
          0                 6           1            44   31     1       0.1059217731E-04      44   33    1         0.8510126723E-03      0.1168330894E-01
          0                 7           1            22   30     2       0.1210849886E-04      47   30    1         0.7015840135E-03      0.1018052581E-01
          0                 8           1            38   32     2       0.8061911153E-05      44   33    1         0.5959330032E-03      0.9184629212E-02

    ------------------------------------------------
       NWT REQUIRED            8 OUTER ITERATIONS 
       AND A TOTAL OF          8 INNER ITERATIONS.
    ------------------------------------------------

 OUTPUT CONTROL FOR STRESS PERIOD    1   TIME STEP  931
    SAVE HEAD FOR ALL LAYERS
 SOLVING FOR ZETA FOR LAYER     1 ZONE     2

     608 UPPER PART EQS.       612 LOWER PART EQS.    BAND WIDTH + 1 =   29
 STRESS PERIOD=  1 TIMESTEP=931 LAYER=  1 ZONE=  2 ACTIVE CELLS= 1220 NUMBER OF EQUATIONS=    1220
 SOLVING FOR ZETA FOR LAYER     2 ZONE     2

     621 UPPER PART EQS.       632 LOWER PART EQS.    BAND WIDTH + 1 =   34
 STRESS PERIOD=  1 TIMESTEP=931 LAYER=  2 ZONE=  2 ACTIVE CELLS= 1253 NUMBER OF EQUATIONS=    1253
 UBUDSV SAVING "      ZETASRF  1" ON UNIT 55 AT TIME STEP931, STRESS PERIOD    1

 HEAD WILL BE SAVED ON UNIT   51 AT END OF TIME STEP  931, STRESS PERIOD    1
 
 SOLVING FOR HEAD 
                                                   Max.-Head-Change                         Max.-Flux-Residual
  Residual-Control   Outer-Iter.   Inner-Iter.     Column Row Layer    Maximum-Head-Change  Column Row Layer    Maximum-Flux-Residual          L2-NORM 
          0                 1           1            48   33     1      -0.7290223627E-03      14   36    1        -0.5151352065E+00      0.3578373649E+01
          0                 2           1            44   31     1      -0.7820030392E-04      45   32    1        -0.1502653008E-01      0.1031797911E+00
          0                 3           1            43   31     2      -0.4302101118E-04      47   30    1        -0.3395400943E-02      0.2866069780E-01
          0                 4           1            19   30     1      -0.1789583335E-04      44   33    1        -0.1546485417E-02      0.1687868025E-01
          0                 5           1            16   33     1      -0.1759200534E-04      47   30    1        -0.1188063583E-02      0.1293832594E-01
          0                 6           1            19   30     1      -0.1034567587E-04      44   33    1        -0.8041323166E-03      0.1089977236E-01
          0                 7           1            21   31     2      -0.1227821201E-04      47   30    1        -0.6528111873E-03      0.9353609968E-02
          0                 8           1            26   30     2      -0.7317187178E-05      44   33    1        -0.5466812141E-03      0.8413633596E-02

    ------------------------------------------------
       NWT REQUIRED            8 OUTER ITERATIONS 
       AND A TOTAL OF          8 INNER ITERATIONS.
    ------------------------------------------------

 OUTPUT CONTROL FOR STRESS PERIOD    1   TIME STEP  932
    SAVE HEAD FOR ALL LAYERS
 SOLVING FOR ZETA FOR LAYER     1 ZONE     2

     594 UPPER PART EQS.       605 LOWER PART EQS.    BAND WIDTH + 1 =   31
 STRESS PERIOD=  1 TIMESTEP=932 LAYER=  1 ZONE=  2 ACTIVE CELLS= 1199 NUMBER OF EQUATIONS=    1199
 SOLVING FOR ZETA FOR LAYER     2 ZONE     2

     621 UPPER PART EQS.       632 LOWER PART EQS.    BAND WIDTH + 1 =   34
 STRESS PERIOD=  1 TIMESTEP=932 LAYER=  2 ZONE=  2 ACTIVE CELLS= 1253 NUMBER OF EQUATIONS=    1253
 UBUDSV SAVING "      ZETASRF  1" ON UNIT 55 AT TIME STEP932, STRESS PERIOD    1

 HEAD WILL BE SAVED ON UNIT   51 AT END OF TIME STEP  932, STRESS PERIOD    1
 
 SOLVING FOR HEAD 
                                                   Max.-Head-Change                         Max.-Flux-Residual
  Residual-Control   Outer-Iter.   Inner-Iter.     Column Row Layer    Maximum-Head-Change  Column Row Layer    Maximum-Flux-Residual          L2-NORM 
          0                 1           1            48   32     1       0.7096532777E-03      14   36    1         0.5036888130E+00      0.3874044325E+01
          0                 2           1            44   31     1       0.6749872337E-04      45   32    1         0.1457856655E-01      0.9364426288E-01
          0                 3           1            42   32     2       0.3490666719E-04      47   30    1         0.3001577801E-02      0.2520402231E-01
          0                 4           1            19   30     1       0.1497966436E-04      44   33    1         0.1350510734E-02      0.1427087877E-01
          0                 5           1            20   28     2       0.1536199388E-04      15   30    1         0.9733144032E-03      0.1101535827E-01
          0                 6           1            19   30     1       0.9164719471E-05      44   33    1         0.7079595281E-03      0.9420985836E-02

    ------------------------------------------------
       NWT REQUIRED            6 OUTER ITERATIONS 
       AND A TOTAL OF          6 INNER ITERATIONS.
    ------------------------------------------------

 OUTPUT CONTROL FOR STRESS PERIOD    1   TIME STEP  933
    SAVE HEAD FOR ALL LAYERS
 SOLVING FOR ZETA FOR LAYER     1 ZONE     2

     605 UPPER PART EQS.       616 LOWER PART EQS.    BAND WIDTH + 1 =   32
 STRESS PERIOD=  1 TIMESTEP=933 LAYER=  1 ZONE=  2 ACTIVE CELLS= 1221 NUMBER OF EQUATIONS=    1221
 SOLVING FOR ZETA FOR LAYER     2 ZONE     2

     621 UPPER PART EQS.       632 LOWER PART EQS.    BAND WIDTH + 1 =   34
 STRESS PERIOD=  1 TIMESTEP=933 LAYER=  2 ZONE=  2 ACTIVE CELLS= 1253 NUMBER OF EQUATIONS=    1253
 UBUDSV SAVING "      ZETASRF  1" ON UNIT 55 AT TIME STEP933, STRESS PERIOD    1

 HEAD WILL BE SAVED ON UNIT   51 AT END OF TIME STEP  933, STRESS PERIOD    1
 
 SOLVING FOR HEAD 
                                                   Max.-Head-Change                         Max.-Flux-Residual
  Residual-Control   Outer-Iter.   Inner-Iter.     Column Row Layer    Maximum-Head-Change  Column Row Layer    Maximum-Flux-Residual          L2-NORM 
          0                 1           1            48   32     1      -0.6955676016E-03      26   48    1        -0.5147835583E+00      0.3592875279E+01
          0                 2           1            44   33     1      -0.5369356832E-04      45   32    1        -0.1382276386E-01      0.8406513734E-01
          0                 3           1            43   31     2      -0.2343967566E-04      47   30    1        -0.2278283100E-02      0.1794819524E-01
          0                 4           1            19   30     1      -0.9299905112E-05      44   33    1        -0.9494505744E-03      0.8805607137E-02

    ------------------------------------------------
       NWT REQUIRED            4 OUTER ITERATIONS 
       AND A TOTAL OF          4 INNER ITERATIONS.
    ------------------------------------------------

 OUTPUT CONTROL FOR STRESS PERIOD    1   TIME STEP  934
    SAVE HEAD FOR ALL LAYERS
 SOLVING FOR ZETA FOR LAYER     1 ZONE     2

     596 UPPER PART EQS.       608 LOWER PART EQS.    BAND WIDTH + 1 =   33
 STRESS PERIOD=  1 TIMESTEP=934 LAYER=  1 ZONE=  2 ACTIVE CELLS= 1204 NUMBER OF EQUATIONS=    1204
 SOLVING FOR ZETA FOR LAYER     2 ZONE     2

     621 UPPER PART EQS.       632 LOWER PART EQS.    BAND WIDTH + 1 =   34
 STRESS PERIOD=  1 TIMESTEP=934 LAYER=  2 ZONE=  2 ACTIVE CELLS= 1253 NUMBER OF EQUATIONS=    1253
 UBUDSV SAVING "      ZETASRF  1" ON UNIT 55 AT TIME STEP934, STRESS PERIOD    1

 HEAD WILL BE SAVED ON UNIT   51 AT END OF TIME STEP  934, STRESS PERIOD    1
 
 SOLVING FOR HEAD 
                                                   Max.-Head-Change                         Max.-Flux-Residual
  Residual-Control   Outer-Iter.   Inner-Iter.     Column Row Layer    Maximum-Head-Change  Column Row Layer    Maximum-Flux-Residual          L2-NORM 
          0                 1           1            48   33     1       0.7130296238E-03      36   49    1         0.5179643605E+00      0.3411245750E+01
          0                 2           1            44   31     1       0.7001542351E-04      45   32    1         0.1457304520E-01      0.8967755428E-01
          0                 3           1            42   32     2       0.3849569500E-04      47   30    1         0.3081260958E-02      0.2451632466E-01
          0                 4           1            44   33     1       0.1566450891E-04      44   33    1         0.1456805354E-02      0.1426292328E-01
          0                 5           1            42   32     2       0.1581699505E-04      47   30    1         0.1064320384E-02      0.1096860867E-01
          0                 6           1            44   33     1       0.8893770163E-05      44   33    1         0.7953947291E-03      0.9339669703E-02

    ------------------------------------------------
       NWT REQUIRED            6 OUTER ITERATIONS 
       AND A TOTAL OF          6 INNER ITERATIONS.
    ------------------------------------------------

 OUTPUT CONTROL FOR STRESS PERIOD    1   TIME STEP  935
    SAVE HEAD FOR ALL LAYERS
 SOLVING FOR ZETA FOR LAYER     1 ZONE     2

     609 UPPER PART EQS.       619 LOWER PART EQS.    BAND WIDTH + 1 =   33
 STRESS PERIOD=  1 TIMESTEP=935 LAYER=  1 ZONE=  2 ACTIVE CELLS= 1228 NUMBER OF EQUATIONS=    1228
 SOLVING FOR ZETA FOR LAYER     2 ZONE     2

     621 UPPER PART EQS.       632 LOWER PART EQS.    BAND WIDTH + 1 =   34
 STRESS PERIOD=  1 TIMESTEP=935 LAYER=  2 ZONE=  2 ACTIVE CELLS= 1253 NUMBER OF EQUATIONS=    1253
 UBUDSV SAVING "      ZETASRF  1" ON UNIT 55 AT TIME STEP935, STRESS PERIOD    1

 HEAD WILL BE SAVED ON UNIT   51 AT END OF TIME STEP  935, STRESS PERIOD    1
 
 SOLVING FOR HEAD 
                                                   Max.-Head-Change                         Max.-Flux-Residual
  Residual-Control   Outer-Iter.   Inner-Iter.     Column Row Layer    Maximum-Head-Change  Column Row Layer    Maximum-Flux-Residual          L2-NORM 
          0                 1           1            48   35     1      -0.8747561313E-03      14   36    1        -0.5141922677E+00      0.3942324794E+01
          0                 2           1            44   31     1      -0.9302391266E-04      45   36    1        -0.1762761090E-01      0.1214605185E+00
          0                 3           1            42   32     2      -0.5749029636E-04      47   30    1        -0.3981864110E-02      0.3616988473E-01
          0                 4           1            44   31     1      -0.2333106438E-04      44   29    1        -0.2028972639E-02      0.2159305741E-01
          0                 5           1            42   32     2      -0.2551432548E-04      47   30    1        -0.1455866979E-02      0.1657171414E-01
          0                 6           1            44   31     1      -0.1319751784E-04      44   29    1        -0.1148226147E-02      0.1391227013E-01
          0                 7           1            41   31     2      -0.1807859091E-04      47   30    1        -0.8031669166E-03      0.1190155281E-01
          0                 8           1            38   32     2      -0.9044277608E-05      44   29    1        -0.8034532534E-03      0.1070955970E-01

    ------------------------------------------------
       NWT REQUIRED            8 OUTER ITERATIONS 
       AND A TOTAL OF          8 INNER ITERATIONS.
    ------------------------------------------------

 OUTPUT CONTROL FOR STRESS PERIOD    1   TIME STEP  936
    SAVE HEAD FOR ALL LAYERS
 SOLVING FOR ZETA FOR LAYER     1 ZONE     2

     598 UPPER PART EQS.       607 LOWER PART EQS.    BAND WIDTH + 1 =   33
 STRESS PERIOD=  1 TIMESTEP=936 LAYER=  1 ZONE=  2 ACTIVE CELLS= 1205 NUMBER OF EQUATIONS=    1205
 SOLVING FOR ZETA FOR LAYER     2 ZONE     2

     621 UPPER PART EQS.       632 LOWER PART EQS.    BAND WIDTH + 1 =   34
 STRESS PERIOD=  1 TIMESTEP=936 LAYER=  2 ZONE=  2 ACTIVE CELLS= 1253 NUMBER OF EQUATIONS=    1253
 UBUDSV SAVING "      ZETASRF  1" ON UNIT 55 AT TIME STEP936, STRESS PERIOD    1

 HEAD WILL BE SAVED ON UNIT   51 AT END OF TIME STEP  936, STRESS PERIOD    1
 
 SOLVING FOR HEAD 
                                                   Max.-Head-Change                         Max.-Flux-Residual
  Residual-Control   Outer-Iter.   Inner-Iter.     Column Row Layer    Maximum-Head-Change  Column Row Layer    Maximum-Flux-Residual          L2-NORM 
          0                 1           1            48   35     1       0.8693173577E-03      14   26    1         0.5030463750E+00      0.3676913936E+01
          0                 2           1            44   31     1       0.9319592705E-04      45   36    1         0.1745712729E-01      0.1220474421E+00
          0                 3           1            42   32     2       0.5512431095E-04      47   30    1         0.4040500538E-02      0.3702115962E-01
          0                 4           1            44   31     1       0.2414900753E-04      44   29    1         0.2012848473E-02      0.2285675307E-01
          0                 5           1            42   32     2       0.2658217091E-04      47   30    1         0.1474741587E-02      0.1823743991E-01
          0                 6           1            44   31     1       0.1420374892E-04      44   29    1         0.1176883033E-02      0.1578611864E-01
          0                 7           1            41   31     2       0.1942063682E-04      47   30    1         0.8701064396E-03      0.1374776138E-01
          0                 8           1            38   32     2       0.1055681654E-04      44   29    1         0.8718345116E-03      0.1245826236E-01
          0                 9           1            34   32     2       0.1577185423E-04      42   34    2         0.6269654142E-03      0.1094914956E-01
          0                10           1            38   32     2       0.8341037609E-05      44   29    1         0.6924195583E-03      0.1001684211E-01

    ------------------------------------------------
       NWT REQUIRED           10 OUTER ITERATIONS 
       AND A TOTAL OF         10 INNER ITERATIONS.
    ------------------------------------------------

 OUTPUT CONTROL FOR STRESS PERIOD    1   TIME STEP  937
    SAVE HEAD FOR ALL LAYERS
 SOLVING FOR ZETA FOR LAYER     1 ZONE     2

     616 UPPER PART EQS.       605 LOWER PART EQS.    BAND WIDTH + 1 =   29
 STRESS PERIOD=  1 TIMESTEP=937 LAYER=  1 ZONE=  2 ACTIVE CELLS= 1221 NUMBER OF EQUATIONS=    1221
 SOLVING FOR ZETA FOR LAYER     2 ZONE     2

     621 UPPER PART EQS.       632 LOWER PART EQS.    BAND WIDTH + 1 =   34
 STRESS PERIOD=  1 TIMESTEP=937 LAYER=  2 ZONE=  2 ACTIVE CELLS= 1253 NUMBER OF EQUATIONS=    1253
 UBUDSV SAVING "      ZETASRF  1" ON UNIT 55 AT TIME STEP937, STRESS PERIOD    1

 HEAD WILL BE SAVED ON UNIT   51 AT END OF TIME STEP  937, STRESS PERIOD    1
 
 SOLVING FOR HEAD 
                                                   Max.-Head-Change                         Max.-Flux-Residual
  Residual-Control   Outer-Iter.   Inner-Iter.     Column Row Layer    Maximum-Head-Change  Column Row Layer    Maximum-Flux-Residual          L2-NORM 
          0                 1           1            48   33     1      -0.7103064491E-03      26   14    1        -0.5143900977E+00      0.3343694013E+01
          0                 2           1            44   31     1      -0.6631034379E-04      45   32    1        -0.1436038159E-01      0.8944710286E-01
          0                 3           1            43   31     2      -0.3039600659E-04      47   30    1        -0.3001405007E-02      0.2254993985E-01
          0                 4           1            19   30     1      -0.1359405513E-04      44   33    1        -0.1255822117E-02      0.1200880712E-01
          0                 5           1            16   33     1      -0.1188977838E-04      15   30    1        -0.8770503929E-03      0.8933885468E-02
          0                 6           1            19   30     1      -0.7890115445E-05      44   33    1        -0.6033789299E-03      0.7482650136E-02

    ------------------------------------------------
       NWT REQUIRED            6 OUTER ITERATIONS 
       AND A TOTAL OF          6 INNER ITERATIONS.
    ------------------------------------------------

 OUTPUT CONTROL FOR STRESS PERIOD    1   TIME STEP  938
    SAVE HEAD FOR ALL LAYERS
 SOLVING FOR ZETA FOR LAYER     1 ZONE     2

     608 UPPER PART EQS.       609 LOWER PART EQS.    BAND WIDTH + 1 =   27
 STRESS PERIOD=  1 TIMESTEP=938 LAYER=  1 ZONE=  2 ACTIVE CELLS= 1217 NUMBER OF EQUATIONS=    1217
 SOLVING FOR ZETA FOR LAYER     2 ZONE     2

     621 UPPER PART EQS.       632 LOWER PART EQS.    BAND WIDTH + 1 =   34
 STRESS PERIOD=  1 TIMESTEP=938 LAYER=  2 ZONE=  2 ACTIVE CELLS= 1253 NUMBER OF EQUATIONS=    1253
 UBUDSV SAVING "      ZETASRF  1" ON UNIT 55 AT TIME STEP938, STRESS PERIOD    1

 HEAD WILL BE SAVED ON UNIT   51 AT END OF TIME STEP  938, STRESS PERIOD    1
 
 SOLVING FOR HEAD 
                                                   Max.-Head-Change                         Max.-Flux-Residual
  Residual-Control   Outer-Iter.   Inner-Iter.     Column Row Layer    Maximum-Head-Change  Column Row Layer    Maximum-Flux-Residual          L2-NORM 
          0                 1           1            36   13     1       0.7214641334E-03      36   49    1         0.5168512122E+00      0.3747090215E+01
          0                 2           1            44   33     1       0.5485826412E-04      45   32    1         0.1390693319E-01      0.8599395361E-01
          0                 3           1            43   31     2       0.2373664618E-04      47   30    1         0.2403323789E-02      0.1952146940E-01
          0                 4           1            19   33     2       0.9666857574E-05      44   33    1         0.9589067883E-03      0.9424570865E-02

    ------------------------------------------------
       NWT REQUIRED            4 OUTER ITERATIONS 
       AND A TOTAL OF          4 INNER ITERATIONS.
    ------------------------------------------------

 OUTPUT CONTROL FOR STRESS PERIOD    1   TIME STEP  939
    SAVE HEAD FOR ALL LAYERS
 SOLVING FOR ZETA FOR LAYER     1 ZONE     2

     616 UPPER PART EQS.       613 LOWER PART EQS.    BAND WIDTH + 1 =   26
 STRESS PERIOD=  1 TIMESTEP=939 LAYER=  1 ZONE=  2 ACTIVE CELLS= 1229 NUMBER OF EQUATIONS=    1229
 SOLVING FOR ZETA FOR LAYER     2 ZONE     2

     621 UPPER PART EQS.       632 LOWER PART EQS.    BAND WIDTH + 1 =   34
 STRESS PERIOD=  1 TIMESTEP=939 LAYER=  2 ZONE=  2 ACTIVE CELLS= 1253 NUMBER OF EQUATIONS=    1253
 UBUDSV SAVING "      ZETASRF  1" ON UNIT 55 AT TIME STEP939, STRESS PERIOD    1

 HEAD WILL BE SAVED ON UNIT   51 AT END OF TIME STEP  939, STRESS PERIOD    1
 
 SOLVING FOR HEAD 
                                                   Max.-Head-Change                         Max.-Flux-Residual
  Residual-Control   Outer-Iter.   Inner-Iter.     Column Row Layer    Maximum-Head-Change  Column Row Layer    Maximum-Flux-Residual          L2-NORM 
          0                 1           1            48   32     1      -0.7031995486E-03      14   26    1        -0.5138160235E+00      0.3893288816E+01
          0                 2           1            44   31     1      -0.6709744019E-04      45   32    1        -0.1442826621E-01      0.9437603514E-01
          0                 3           1            42   32     2      -0.3802416175E-04      47   30    1        -0.2935087873E-02      0.2544734418E-01
          0                 4           1            43   30     1      -0.1537624340E-04      44   33    1        -0.1427151451E-02      0.1439639061E-01
          0                 5           1            42   32     2      -0.1414964171E-04      47   30    1        -0.1046436205E-02      0.1048787367E-01
          0                 6           1            44   33     1      -0.8130945195E-05      44   33    1        -0.7387773168E-03      0.8580095576E-02

    ------------------------------------------------
       NWT REQUIRED            6 OUTER ITERATIONS 
       AND A TOTAL OF          6 INNER ITERATIONS.
    ------------------------------------------------

 OUTPUT CONTROL FOR STRESS PERIOD    1   TIME STEP  940
    SAVE HEAD FOR ALL LAYERS
 SOLVING FOR ZETA FOR LAYER     1 ZONE     2

     600 UPPER PART EQS.       601 LOWER PART EQS.    BAND WIDTH + 1 =   27
 STRESS PERIOD=  1 TIMESTEP=940 LAYER=  1 ZONE=  2 ACTIVE CELLS= 1201 NUMBER OF EQUATIONS=    1201
 SOLVING FOR ZETA FOR LAYER     2 ZONE     2

     617 UPPER PART EQS.       632 LOWER PART EQS.    BAND WIDTH + 1 =   34
 STRESS PERIOD=  1 TIMESTEP=940 LAYER=  2 ZONE=  2 ACTIVE CELLS= 1249 NUMBER OF EQUATIONS=    1249
 UBUDSV SAVING "      ZETASRF  1" ON UNIT 55 AT TIME STEP940, STRESS PERIOD    1

 HEAD WILL BE SAVED ON UNIT   51 AT END OF TIME STEP  940, STRESS PERIOD    1
 
 SOLVING FOR HEAD 
                                                   Max.-Head-Change                         Max.-Flux-Residual
  Residual-Control   Outer-Iter.   Inner-Iter.     Column Row Layer    Maximum-Head-Change  Column Row Layer    Maximum-Flux-Residual          L2-NORM 
          0                 1           1            48   33     1       0.7177811623E-03      14   36    1         0.5018972899E+00      0.3596065915E+01
          0                 2           1            44   31     1       0.8136382088E-04      45   32    1         0.1482146664E-01      0.1017334749E+00
          0                 3           1            42   32     2       0.4899796720E-04      47   30    1         0.3604873019E-02      0.3206579207E-01
          0                 4           1            43   30     1       0.2050968174E-04      44   33    1         0.1802635006E-02      0.1989466363E-01
          0                 5           1            42   32     2       0.2403831320E-04      47   30    1         0.1295179141E-02      0.1604540583E-01
          0                 6           1            44   33     1       0.1211365609E-04      44   33    1         0.1078994410E-02      0.1397067919E-01
          0                 7           1            41   31     2       0.1738053236E-04      47   30    1         0.7823544871E-03      0.1223351032E-01
          0                 8           1            38   32     2       0.9128699293E-05      44   33    1         0.8209081738E-03      0.1108813671E-01

    ------------------------------------------------
       NWT REQUIRED            8 OUTER ITERATIONS 
       AND A TOTAL OF          8 INNER ITERATIONS.
    ------------------------------------------------

 OUTPUT CONTROL FOR STRESS PERIOD    1   TIME STEP  941
    SAVE HEAD FOR ALL LAYERS
 SOLVING FOR ZETA FOR LAYER     1 ZONE     2

     613 UPPER PART EQS.       620 LOWER PART EQS.    BAND WIDTH + 1 =   32
 STRESS PERIOD=  1 TIMESTEP=941 LAYER=  1 ZONE=  2 ACTIVE CELLS= 1233 NUMBER OF EQUATIONS=    1233
 SOLVING FOR ZETA FOR LAYER     2 ZONE     2

     621 UPPER PART EQS.       632 LOWER PART EQS.    BAND WIDTH + 1 =   34
 STRESS PERIOD=  1 TIMESTEP=941 LAYER=  2 ZONE=  2 ACTIVE CELLS= 1253 NUMBER OF EQUATIONS=    1253
 UBUDSV SAVING "      ZETASRF  1" ON UNIT 55 AT TIME STEP941, STRESS PERIOD    1

 HEAD WILL BE SAVED ON UNIT   51 AT END OF TIME STEP  941, STRESS PERIOD    1
 
 SOLVING FOR HEAD 
                                                   Max.-Head-Change                         Max.-Flux-Residual
  Residual-Control   Outer-Iter.   Inner-Iter.     Column Row Layer    Maximum-Head-Change  Column Row Layer    Maximum-Flux-Residual          L2-NORM 
          0                 1           1            48   34     1      -0.7711792648E-03      26   48    1        -0.5140198623E+00      0.3598724057E+01
          0                 2           1            44   31     1      -0.7962693601E-04      45   34    1        -0.1512114793E-01      0.1081453547E+00
          0                 3           1            43   31     2      -0.4359373568E-04      47   30    1        -0.3522928920E-02      0.3010173925E-01
          0                 4           1            44   31     1      -0.1994601705E-04      44   33    1        -0.1657839236E-02      0.1840731252E-01
          0                 5           1            42   32     2      -0.1988475685E-04      47   30    1        -0.1282701655E-02      0.1479528274E-01
          0                 6           1            44   33     1      -0.1223916361E-04      44   33    1        -0.9428267407E-03      0.1290829109E-01
          0                 7           1            42   32     2      -0.1391944118E-04      47   30    1        -0.7967811579E-03      0.1135699761E-01
          0                 8           1            38   32     2      -0.9360812997E-05      44   33    1        -0.6901335500E-03      0.1027935040E-01

    ------------------------------------------------
       NWT REQUIRED            8 OUTER ITERATIONS 
       AND A TOTAL OF          8 INNER ITERATIONS.
    ------------------------------------------------

 OUTPUT CONTROL FOR STRESS PERIOD    1   TIME STEP  942
    SAVE HEAD FOR ALL LAYERS
 SOLVING FOR ZETA FOR LAYER     1 ZONE     2

     606 UPPER PART EQS.       610 LOWER PART EQS.    BAND WIDTH + 1 =   28
 STRESS PERIOD=  1 TIMESTEP=942 LAYER=  1 ZONE=  2 ACTIVE CELLS= 1216 NUMBER OF EQUATIONS=    1216
 SOLVING FOR ZETA FOR LAYER     2 ZONE     2

     621 UPPER PART EQS.       632 LOWER PART EQS.    BAND WIDTH + 1 =   34
 STRESS PERIOD=  1 TIMESTEP=942 LAYER=  2 ZONE=  2 ACTIVE CELLS= 1253 NUMBER OF EQUATIONS=    1253
 UBUDSV SAVING "      ZETASRF  1" ON UNIT 55 AT TIME STEP942, STRESS PERIOD    1

 HEAD WILL BE SAVED ON UNIT   51 AT END OF TIME STEP  942, STRESS PERIOD    1
 
 SOLVING FOR HEAD 
                                                   Max.-Head-Change                         Max.-Flux-Residual
  Residual-Control   Outer-Iter.   Inner-Iter.     Column Row Layer    Maximum-Head-Change  Column Row Layer    Maximum-Flux-Residual          L2-NORM 
          0                 1           1            48   34     1       0.7739625173E-03      36   14    1        -0.5130868001E+00      0.3714829096E+01
          0                 2           1            44   31     1       0.8062384130E-04      45   34    1         0.1521006659E-01      0.1049653563E+00
          0                 3           1            43   31     2       0.4399498725E-04      47   30    1         0.3522358754E-02      0.2863550151E-01
          0                 4           1            44   31     1       0.1797921833E-04      44   33    1         0.1599940124E-02      0.1617655005E-01
          0                 5           1            42   32     2       0.1723727600E-04      47   30    1         0.1159719151E-02      0.1206164174E-01
          0                 6           1            44   33     1       0.9860520641E-05      44   33    1         0.8656400535E-03      0.9980881423E-02

    ------------------------------------------------
       NWT REQUIRED            6 OUTER ITERATIONS 
       AND A TOTAL OF          6 INNER ITERATIONS.
    ------------------------------------------------

 OUTPUT CONTROL FOR STRESS PERIOD    1   TIME STEP  943
    SAVE HEAD FOR ALL LAYERS
 SOLVING FOR ZETA FOR LAYER     1 ZONE     2

     611 UPPER PART EQS.       613 LOWER PART EQS.    BAND WIDTH + 1 =   27
 STRESS PERIOD=  1 TIMESTEP=943 LAYER=  1 ZONE=  2 ACTIVE CELLS= 1224 NUMBER OF EQUATIONS=    1224
 SOLVING FOR ZETA FOR LAYER     2 ZONE     2

     621 UPPER PART EQS.       632 LOWER PART EQS.    BAND WIDTH + 1 =   34
 STRESS PERIOD=  1 TIMESTEP=943 LAYER=  2 ZONE=  2 ACTIVE CELLS= 1253 NUMBER OF EQUATIONS=    1253
 UBUDSV SAVING "      ZETASRF  1" ON UNIT 55 AT TIME STEP943, STRESS PERIOD    1

 HEAD WILL BE SAVED ON UNIT   51 AT END OF TIME STEP  943, STRESS PERIOD    1
 
 SOLVING FOR HEAD 
                                                   Max.-Head-Change                         Max.-Flux-Residual
  Residual-Control   Outer-Iter.   Inner-Iter.     Column Row Layer    Maximum-Head-Change  Column Row Layer    Maximum-Flux-Residual          L2-NORM 
          0                 1           1            48   33     1      -0.7232778309E-03      14   36    1        -0.5128477518E+00      0.3505202716E+01
          0                 2           1            44   31     1      -0.7720132290E-04      45   32    1        -0.1485763611E-01      0.9941363849E-01
          0                 3           1            43   31     2      -0.4248219976E-04      47   30    1        -0.3329840899E-02      0.2760680784E-01
          0                 4           1            44   31     1      -0.1597689996E-04      44   33    1        -0.1492764862E-02      0.1510988032E-01
          0                 5           1            16   33     1      -0.1511689608E-04      47   30    1        -0.1138876702E-02      0.1052197459E-01
          0                 6           1            44   31     1      -0.7944283279E-05      44   33    1        -0.7303312448E-03      0.8134131879E-02

    ------------------------------------------------
       NWT REQUIRED            6 OUTER ITERATIONS 
       AND A TOTAL OF          6 INNER ITERATIONS.
    ------------------------------------------------

 OUTPUT CONTROL FOR STRESS PERIOD    1   TIME STEP  944
    SAVE HEAD FOR ALL LAYERS
 SOLVING FOR ZETA FOR LAYER     1 ZONE     2

     598 UPPER PART EQS.       611 LOWER PART EQS.    BAND WIDTH + 1 =   36
 STRESS PERIOD=  1 TIMESTEP=944 LAYER=  1 ZONE=  2 ACTIVE CELLS= 1209 NUMBER OF EQUATIONS=    1209
 SOLVING FOR ZETA FOR LAYER     2 ZONE     2

     621 UPPER PART EQS.       632 LOWER PART EQS.    BAND WIDTH + 1 =   34
 STRESS PERIOD=  1 TIMESTEP=944 LAYER=  2 ZONE=  2 ACTIVE CELLS= 1253 NUMBER OF EQUATIONS=    1253
 UBUDSV SAVING "      ZETASRF  1" ON UNIT 55 AT TIME STEP944, STRESS PERIOD    1

 HEAD WILL BE SAVED ON UNIT   51 AT END OF TIME STEP  944, STRESS PERIOD    1
 
 SOLVING FOR HEAD 
                                                   Max.-Head-Change                         Max.-Flux-Residual
  Residual-Control   Outer-Iter.   Inner-Iter.     Column Row Layer    Maximum-Head-Change  Column Row Layer    Maximum-Flux-Residual          L2-NORM 
          0                 1           1            48   32     1       0.7039457096E-03      14   36    1         0.5011010079E+00      0.3631948322E+01
          0                 2           1            44   31     1       0.6605698331E-04      45   32    1         0.1441865312E-01      0.8598712502E-01
          0                 3           1            42   32     2       0.3531805644E-04      47   30    1         0.2878804036E-02      0.2360365455E-01
          0                 4           1            19   30     1       0.1423264032E-04      44   33    1         0.1314733173E-02      0.1346185557E-01
          0                 5           1            20   28     2       0.1431593199E-04      15   30    1         0.9481680860E-03      0.1027968342E-01
          0                 6           1            19   30     1       0.8497825770E-05      44   33    1         0.7057701690E-03      0.8679479439E-02

    ------------------------------------------------
       NWT REQUIRED            6 OUTER ITERATIONS 
       AND A TOTAL OF          6 INNER ITERATIONS.
    ------------------------------------------------

 OUTPUT CONTROL FOR STRESS PERIOD    1   TIME STEP  945
    SAVE HEAD FOR ALL LAYERS
 SOLVING FOR ZETA FOR LAYER     1 ZONE     2

     618 UPPER PART EQS.       608 LOWER PART EQS.    BAND WIDTH + 1 =   28
 STRESS PERIOD=  1 TIMESTEP=945 LAYER=  1 ZONE=  2 ACTIVE CELLS= 1226 NUMBER OF EQUATIONS=    1226
 SOLVING FOR ZETA FOR LAYER     2 ZONE     2

     621 UPPER PART EQS.       632 LOWER PART EQS.    BAND WIDTH + 1 =   34
 STRESS PERIOD=  1 TIMESTEP=945 LAYER=  2 ZONE=  2 ACTIVE CELLS= 1253 NUMBER OF EQUATIONS=    1253
 UBUDSV SAVING "      ZETASRF  1" ON UNIT 55 AT TIME STEP945, STRESS PERIOD    1

 HEAD WILL BE SAVED ON UNIT   51 AT END OF TIME STEP  945, STRESS PERIOD    1
 
 SOLVING FOR HEAD 
                                                   Max.-Head-Change                         Max.-Flux-Residual
  Residual-Control   Outer-Iter.   Inner-Iter.     Column Row Layer    Maximum-Head-Change  Column Row Layer    Maximum-Flux-Residual          L2-NORM 
          0                 1           1            48   32     1      -0.6924257645E-03      26   14    1        -0.5133972202E+00      0.3724171425E+01
          0                 2           1            44   33     1      -0.5398994725E-04      45   32    1        -0.1375196313E-01      0.8504740465E-01
          0                 3           1            43   31     2      -0.2412596597E-04      47   30    1        -0.2313163113E-02      0.1916997137E-01
          0                 4           1            44   33     1      -0.9690250870E-05      44   33    1        -0.9943219604E-03      0.1005614963E-01

    ------------------------------------------------
       NWT REQUIRED            4 OUTER ITERATIONS 
       AND A TOTAL OF          4 INNER ITERATIONS.
    ------------------------------------------------

 OUTPUT CONTROL FOR STRESS PERIOD    1   TIME STEP  946
    SAVE HEAD FOR ALL LAYERS
 SOLVING FOR ZETA FOR LAYER     1 ZONE     2

     602 UPPER PART EQS.       602 LOWER PART EQS.    BAND WIDTH + 1 =   27
 STRESS PERIOD=  1 TIMESTEP=946 LAYER=  1 ZONE=  2 ACTIVE CELLS= 1204 NUMBER OF EQUATIONS=    1204
 SOLVING FOR ZETA FOR LAYER     2 ZONE     2

     621 UPPER PART EQS.       628 LOWER PART EQS.    BAND WIDTH + 1 =   34
 STRESS PERIOD=  1 TIMESTEP=946 LAYER=  2 ZONE=  2 ACTIVE CELLS= 1249 NUMBER OF EQUATIONS=    1249
 UBUDSV SAVING "      ZETASRF  1" ON UNIT 55 AT TIME STEP946, STRESS PERIOD    1

 HEAD WILL BE SAVED ON UNIT   51 AT END OF TIME STEP  946, STRESS PERIOD    1
 
 SOLVING FOR HEAD 
                                                   Max.-Head-Change                         Max.-Flux-Residual
  Residual-Control   Outer-Iter.   Inner-Iter.     Column Row Layer    Maximum-Head-Change  Column Row Layer    Maximum-Flux-Residual          L2-NORM 
          0                 1           1            48   32     1       0.7110940039E-03      26   48    1         0.5020651203E+00      0.3504355072E+01
          0                 2           1            44   31     1       0.6964592136E-04      45   32    1         0.1466402768E-01      0.9232320244E-01
          0                 3           1            42   32     2       0.3570260355E-04      47   30    1         0.3041945929E-02      0.2541632076E-01
          0                 4           1            43   30     1       0.1674134152E-04      44   33    1         0.1431986459E-02      0.1528681391E-01
          0                 5           1            42   32     2       0.1714550666E-04      47   30    1         0.1105349883E-02      0.1242551739E-01
          0                 6           1            38   32     2       0.1068017526E-04      44   33    1         0.8658939133E-03      0.1094207822E-01
          0                 7           1            40   33     1       0.1253104787E-04      47   30    1         0.6964157166E-03      0.9686177815E-02
          0                 8           1            38   32     2       0.8187981582E-05      44   33    1         0.6672828018E-03      0.8783741829E-02

    ------------------------------------------------
       NWT REQUIRED            8 OUTER ITERATIONS 
       AND A TOTAL OF          8 INNER ITERATIONS.
    ------------------------------------------------

 OUTPUT CONTROL FOR STRESS PERIOD    1   TIME STEP  947
    SAVE HEAD FOR ALL LAYERS
 SOLVING FOR ZETA FOR LAYER     1 ZONE     2

     612 UPPER PART EQS.       617 LOWER PART EQS.    BAND WIDTH + 1 =   30
 STRESS PERIOD=  1 TIMESTEP=947 LAYER=  1 ZONE=  2 ACTIVE CELLS= 1229 NUMBER OF EQUATIONS=    1229
 SOLVING FOR ZETA FOR LAYER     2 ZONE     2

     621 UPPER PART EQS.       632 LOWER PART EQS.    BAND WIDTH + 1 =   34
 STRESS PERIOD=  1 TIMESTEP=947 LAYER=  2 ZONE=  2 ACTIVE CELLS= 1253 NUMBER OF EQUATIONS=    1253
 UBUDSV SAVING "      ZETASRF  1" ON UNIT 55 AT TIME STEP947, STRESS PERIOD    1

 HEAD WILL BE SAVED ON UNIT   51 AT END OF TIME STEP  947, STRESS PERIOD    1
 
 SOLVING FOR HEAD 
                                                   Max.-Head-Change                         Max.-Flux-Residual
  Residual-Control   Outer-Iter.   Inner-Iter.     Column Row Layer    Maximum-Head-Change  Column Row Layer    Maximum-Flux-Residual          L2-NORM 
          0                 1           1            48   35     1      -0.8705849605E-03      14   36    1        -0.5119410078E+00      0.3706108095E+01
          0                 2           1            44   31     1      -0.9330254507E-04      45   36    1        -0.1756474774E-01      0.1220319908E+00
          0                 3           1            42   32     2      -0.5776147492E-04      47   30    1        -0.4040235500E-02      0.3733708413E-01
          0                 4           1            44   31     1      -0.2470795913E-04      44   29    1        -0.2085671941E-02      0.2298300147E-01
          0                 5           1            42   32     2      -0.2773017845E-04      47   30    1        -0.1523023553E-02      0.1809993224E-01
          0                 6           1            44   31     1      -0.1456014290E-04      44   29    1        -0.1233361182E-02      0.1546681368E-01
          0                 7           1            41   31     2      -0.2028477900E-04      47   30    1        -0.8830889448E-03      0.1341371143E-01
          0                 8           1            38   32     2      -0.1032125143E-04      44   29    1        -0.8963583815E-03      0.1213175905E-01
          0                 9           1            34   32     2      -0.1605306669E-04      42   30    2        -0.6125003348E-03      0.1063494677E-01
          0                10           1            38   32     2      -0.8010211842E-05      44   29    1        -0.7048609717E-03      0.9760737852E-02

    ------------------------------------------------
       NWT REQUIRED           10 OUTER ITERATIONS 
       AND A TOTAL OF         10 INNER ITERATIONS.
    ------------------------------------------------

 OUTPUT CONTROL FOR STRESS PERIOD    1   TIME STEP  948
    SAVE HEAD FOR ALL LAYERS
 SOLVING FOR ZETA FOR LAYER     1 ZONE     2

     598 UPPER PART EQS.       603 LOWER PART EQS.    BAND WIDTH + 1 =   28
 STRESS PERIOD=  1 TIMESTEP=948 LAYER=  1 ZONE=  2 ACTIVE CELLS= 1201 NUMBER OF EQUATIONS=    1201
 SOLVING FOR ZETA FOR LAYER     2 ZONE     2

     621 UPPER PART EQS.       630 LOWER PART EQS.    BAND WIDTH + 1 =   34
 STRESS PERIOD=  1 TIMESTEP=948 LAYER=  2 ZONE=  2 ACTIVE CELLS= 1251 NUMBER OF EQUATIONS=    1251
 UBUDSV SAVING "      ZETASRF  1" ON UNIT 55 AT TIME STEP948, STRESS PERIOD    1

 HEAD WILL BE SAVED ON UNIT   51 AT END OF TIME STEP  948, STRESS PERIOD    1
 
 SOLVING FOR HEAD 
                                                   Max.-Head-Change                         Max.-Flux-Residual
  Residual-Control   Outer-Iter.   Inner-Iter.     Column Row Layer    Maximum-Head-Change  Column Row Layer    Maximum-Flux-Residual          L2-NORM 
          0                 1           1            48   35     1       0.8650726146E-03      14   26    1         0.5004816888E+00      0.3706553056E+01
          0                 2           1            44   31     1       0.9356315176E-04      45   36    1         0.1740039723E-01      0.1230054110E+00
          0                 3           1            42   32     2       0.5570383900E-04      47   30    1         0.4064813122E-02      0.3719649456E-01
          0                 4           1            44   31     1       0.2463013999E-04      44   29    1         0.2037384031E-02      0.2310581422E-01
          0                 5           1            42   32     2       0.2722511704E-04      47   34    1         0.1569435266E-02      0.1857463159E-01
          0                 6           1            44   31     1       0.1442380581E-04      44   29    1         0.1199498653E-02      0.1610151826E-01
          0                 7           1            41   31     2       0.1999312731E-04      47   34    1         0.9359308512E-03      0.1404462459E-01
          0                 8           1            38   32     2       0.1072002382E-04      44   29    1         0.8916438349E-03      0.1272792997E-01
          0                 9           1            34   32     2       0.1627487079E-04      47   34    1         0.6528011255E-03      0.1118493724E-01
          0                10           1            38   32     2       0.8469915875E-05      44   29    1         0.7083360750E-03      0.1023265162E-01

    ------------------------------------------------
       NWT REQUIRED           10 OUTER ITERATIONS 
       AND A TOTAL OF         10 INNER ITERATIONS.
    ------------------------------------------------

 OUTPUT CONTROL FOR STRESS PERIOD    1   TIME STEP  949
    SAVE HEAD FOR ALL LAYERS
 SOLVING FOR ZETA FOR LAYER     1 ZONE     2

     601 UPPER PART EQS.       614 LOWER PART EQS.    BAND WIDTH + 1 =   33
 STRESS PERIOD=  1 TIMESTEP=949 LAYER=  1 ZONE=  2 ACTIVE CELLS= 1215 NUMBER OF EQUATIONS=    1215
 SOLVING FOR ZETA FOR LAYER     2 ZONE     2

     621 UPPER PART EQS.       630 LOWER PART EQS.    BAND WIDTH + 1 =   34
 STRESS PERIOD=  1 TIMESTEP=949 LAYER=  2 ZONE=  2 ACTIVE CELLS= 1251 NUMBER OF EQUATIONS=    1251
 UBUDSV SAVING "      ZETASRF  1" ON UNIT 55 AT TIME STEP949, STRESS PERIOD    1

 HEAD WILL BE SAVED ON UNIT   51 AT END OF TIME STEP  949, STRESS PERIOD    1
 
 SOLVING FOR HEAD 
                                                   Max.-Head-Change                         Max.-Flux-Residual
  Residual-Control   Outer-Iter.   Inner-Iter.     Column Row Layer    Maximum-Head-Change  Column Row Layer    Maximum-Flux-Residual          L2-NORM 
          0                 1           1            48   33     1      -0.7051685594E-03      26   14    1        -0.5127169499E+00      0.3596043291E+01
          0                 2           1            44   31     1      -0.6481709286E-04      45   32    1        -0.1425919374E-01      0.9288411736E-01
          0                 3           1            43   31     2      -0.3000861929E-04      47   30    1        -0.2871577518E-02      0.2299454893E-01
          0                 4           1            44   33     1      -0.1412436181E-04      44   33    1        -0.1248036201E-02      0.1314204021E-01
          0                 5           1            16   33     1      -0.1222294435E-04      47   30    1        -0.9510993171E-03      0.1045870470E-01
          0                 6           1            44   33     1      -0.8673479319E-05      44   33    1        -0.6695075717E-03      0.9104781482E-02

    ------------------------------------------------
       NWT REQUIRED            6 OUTER ITERATIONS 
       AND A TOTAL OF          6 INNER ITERATIONS.
    ------------------------------------------------

 OUTPUT CONTROL FOR STRESS PERIOD    1   TIME STEP  950
    SAVE HEAD FOR ALL LAYERS
 SOLVING FOR ZETA FOR LAYER     1 ZONE     2

     596 UPPER PART EQS.       614 LOWER PART EQS.    BAND WIDTH + 1 =   38
 STRESS PERIOD=  1 TIMESTEP=950 LAYER=  1 ZONE=  2 ACTIVE CELLS= 1210 NUMBER OF EQUATIONS=    1210
 SOLVING FOR ZETA FOR LAYER     2 ZONE     2

     621 UPPER PART EQS.       632 LOWER PART EQS.    BAND WIDTH + 1 =   34
 STRESS PERIOD=  1 TIMESTEP=950 LAYER=  2 ZONE=  2 ACTIVE CELLS= 1253 NUMBER OF EQUATIONS=    1253
 UBUDSV SAVING "      ZETASRF  1" ON UNIT 55 AT TIME STEP950, STRESS PERIOD    1

 HEAD WILL BE SAVED ON UNIT   51 AT END OF TIME STEP  950, STRESS PERIOD    1
 
 SOLVING FOR HEAD 
                                                   Max.-Head-Change                         Max.-Flux-Residual
  Residual-Control   Outer-Iter.   Inner-Iter.     Column Row Layer    Maximum-Head-Change  Column Row Layer    Maximum-Flux-Residual          L2-NORM 
          0                 1           1            48   32     1       0.6929054383E-03      26   14    1         0.5011819795E+00      0.3808720131E+01
          0                 2           1            44   33     1       0.5385404370E-04      45   32    1         0.1377755273E-01      0.8031816335E-01
          0                 3           1            43   31     2       0.2332526820E-04      47   30    1         0.2305267597E-02      0.1780311604E-01
          0                 4           1            19   30     1       0.8871790473E-05      44   33    1         0.9516012962E-03      0.8379430715E-02

    ------------------------------------------------
       NWT REQUIRED            4 OUTER ITERATIONS 
       AND A TOTAL OF          4 INNER ITERATIONS.
    ------------------------------------------------

 OUTPUT CONTROL FOR STRESS PERIOD    1   TIME STEP  951
    SAVE HEAD FOR ALL LAYERS
 SOLVING FOR ZETA FOR LAYER     1 ZONE     2

     613 UPPER PART EQS.       615 LOWER PART EQS.    BAND WIDTH + 1 =   26
 STRESS PERIOD=  1 TIMESTEP=951 LAYER=  1 ZONE=  2 ACTIVE CELLS= 1228 NUMBER OF EQUATIONS=    1228
 SOLVING FOR ZETA FOR LAYER     2 ZONE     2

     621 UPPER PART EQS.       632 LOWER PART EQS.    BAND WIDTH + 1 =   34
 STRESS PERIOD=  1 TIMESTEP=951 LAYER=  2 ZONE=  2 ACTIVE CELLS= 1253 NUMBER OF EQUATIONS=    1253
 UBUDSV SAVING "      ZETASRF  1" ON UNIT 55 AT TIME STEP951, STRESS PERIOD    1

 HEAD WILL BE SAVED ON UNIT   51 AT END OF TIME STEP  951, STRESS PERIOD    1
 
 SOLVING FOR HEAD 
                                                   Max.-Head-Change                         Max.-Flux-Residual
  Residual-Control   Outer-Iter.   Inner-Iter.     Column Row Layer    Maximum-Head-Change  Column Row Layer    Maximum-Flux-Residual          L2-NORM 
          0                 1           1            48   32     1      -0.7008620502E-03      14   26    1        -0.5116231060E+00      0.3706433678E+01
          0                 2           1            44   31     1      -0.6658978437E-04      45   32    1        -0.1434862858E-01      0.8879419377E-01
          0                 3           1            42   32     2      -0.3683591977E-04      47   30    1        -0.2914766630E-02      0.2429889079E-01
          0                 4           1            43   30     1      -0.1458518082E-04      44   33    1        -0.1380798088E-02      0.1364467899E-01
          0                 5           1            42   32     2      -0.1401194916E-04      46   31    1        -0.9528530299E-03      0.1011631309E-01
          0                 6           1            44   33     1      -0.7850029863E-05      44   33    1        -0.7309411036E-03      0.8378566310E-02

    ------------------------------------------------
       NWT REQUIRED            6 OUTER ITERATIONS 
       AND A TOTAL OF          6 INNER ITERATIONS.
    ------------------------------------------------

 OUTPUT CONTROL FOR STRESS PERIOD    1   TIME STEP  952
    SAVE HEAD FOR ALL LAYERS
 SOLVING FOR ZETA FOR LAYER     1 ZONE     2

     596 UPPER PART EQS.       608 LOWER PART EQS.    BAND WIDTH + 1 =   35
 STRESS PERIOD=  1 TIMESTEP=952 LAYER=  1 ZONE=  2 ACTIVE CELLS= 1204 NUMBER OF EQUATIONS=    1204
 SOLVING FOR ZETA FOR LAYER     2 ZONE     2

     621 UPPER PART EQS.       632 LOWER PART EQS.    BAND WIDTH + 1 =   34
 STRESS PERIOD=  1 TIMESTEP=952 LAYER=  2 ZONE=  2 ACTIVE CELLS= 1253 NUMBER OF EQUATIONS=    1253
 UBUDSV SAVING "      ZETASRF  1" ON UNIT 55 AT TIME STEP952, STRESS PERIOD    1

 HEAD WILL BE SAVED ON UNIT   51 AT END OF TIME STEP  952, STRESS PERIOD    1
 
 SOLVING FOR HEAD 
                                                   Max.-Head-Change                         Max.-Flux-Residual
  Residual-Control   Outer-Iter.   Inner-Iter.     Column Row Layer    Maximum-Head-Change  Column Row Layer    Maximum-Flux-Residual          L2-NORM 
          0                 1           1            48   33     1       0.7226178122E-03      14   36    1         0.4994197082E+00      0.3202588926E+01
          0                 2           1            44   31     1       0.8222429589E-04      45   32    1         0.1500986689E-01      0.1004028471E+00
          0                 3           1            42   32     2       0.4833533148E-04      47   30    1         0.3616303942E-02      0.3189063688E-01
          0                 4           1            43   30     1       0.2042903330E-04      44   33    1         0.1801386648E-02      0.1973698759E-01
          0                 5           1            42   32     2       0.2404640771E-04      47   30    1         0.1301253524E-02      0.1593012768E-01
          0                 6           1            44   33     1       0.1194848456E-04      44   33    1         0.1096965433E-02      0.1385530370E-01
          0                 7           1            41   31     2       0.1779513063E-04      47   30    1         0.7777965706E-03      0.1209864264E-01
          0                 8           1            38   32     2       0.8808468880E-05      44   33    1         0.8425507389E-03      0.1095616495E-01

    ------------------------------------------------
       NWT REQUIRED            8 OUTER ITERATIONS 
       AND A TOTAL OF          8 INNER ITERATIONS.
    ------------------------------------------------

 OUTPUT CONTROL FOR STRESS PERIOD    1   TIME STEP  953
    SAVE HEAD FOR ALL LAYERS
 SOLVING FOR ZETA FOR LAYER     1 ZONE     2

     618 UPPER PART EQS.       611 LOWER PART EQS.    BAND WIDTH + 1 =   26
 STRESS PERIOD=  1 TIMESTEP=953 LAYER=  1 ZONE=  2 ACTIVE CELLS= 1229 NUMBER OF EQUATIONS=    1229
 SOLVING FOR ZETA FOR LAYER     2 ZONE     2

     621 UPPER PART EQS.       632 LOWER PART EQS.    BAND WIDTH + 1 =   34
 STRESS PERIOD=  1 TIMESTEP=953 LAYER=  2 ZONE=  2 ACTIVE CELLS= 1253 NUMBER OF EQUATIONS=    1253
 UBUDSV SAVING "      ZETASRF  1" ON UNIT 55 AT TIME STEP953, STRESS PERIOD    1

 HEAD WILL BE SAVED ON UNIT   51 AT END OF TIME STEP  953, STRESS PERIOD    1
 
 SOLVING FOR HEAD 
                                                   Max.-Head-Change                         Max.-Flux-Residual
  Residual-Control   Outer-Iter.   Inner-Iter.     Column Row Layer    Maximum-Head-Change  Column Row Layer    Maximum-Flux-Residual          L2-NORM 
          0                 1           1            35   14     1      -0.7801833872E-03      26   48    1        -0.5120918947E+00      0.3898140107E+01
          0                 2           1            44   31     1      -0.8090588179E-04      10   31    1         0.1520648267E-01      0.1169269989E+00
          0                 3           1            42   32     2      -0.4257274396E-04      47   30    1        -0.3667737250E-02      0.3311069544E-01
          0                 4           1            44   33     1      -0.2130916820E-04      44   33    1        -0.1733954204E-02      0.2031652121E-01
          0                 5           1            42   32     2      -0.2177829408E-04      47   30    1        -0.1326637673E-02      0.1664472390E-01
          0                 6           1            38   32     2      -0.1360626325E-04      44   33    1        -0.1020471963E-02      0.1472760744E-01
          0                 7           1            42   32     2      -0.1587279364E-04      47   30    1        -0.8727014039E-03      0.1300454134E-01
          0                 8           1            38   32     2      -0.1069066077E-04      44   33    1        -0.7762403182E-03      0.1181846499E-01
          0                 9           1            34   32     2      -0.1324507466E-04      47   30    1        -0.6536422506E-03      0.1048908231E-01
          0                10           1            38   32     2      -0.8532949818E-05      44   33    1        -0.6193080110E-03      0.9580746855E-02

    ------------------------------------------------
       NWT REQUIRED           10 OUTER ITERATIONS 
       AND A TOTAL OF         10 INNER ITERATIONS.
    ------------------------------------------------

 OUTPUT CONTROL FOR STRESS PERIOD    1   TIME STEP  954
    SAVE HEAD FOR ALL LAYERS
 SOLVING FOR ZETA FOR LAYER     1 ZONE     2

     610 UPPER PART EQS.       604 LOWER PART EQS.    BAND WIDTH + 1 =   26
 STRESS PERIOD=  1 TIMESTEP=954 LAYER=  1 ZONE=  2 ACTIVE CELLS= 1214 NUMBER OF EQUATIONS=    1214
 SOLVING FOR ZETA FOR LAYER     2 ZONE     2

     619 UPPER PART EQS.       630 LOWER PART EQS.    BAND WIDTH + 1 =   34
 STRESS PERIOD=  1 TIMESTEP=954 LAYER=  2 ZONE=  2 ACTIVE CELLS= 1249 NUMBER OF EQUATIONS=    1249
 UBUDSV SAVING "      ZETASRF  1" ON UNIT 55 AT TIME STEP954, STRESS PERIOD    1

 HEAD WILL BE SAVED ON UNIT   51 AT END OF TIME STEP  954, STRESS PERIOD    1
 
 SOLVING FOR HEAD 
                                                   Max.-Head-Change                         Max.-Flux-Residual
  Residual-Control   Outer-Iter.   Inner-Iter.     Column Row Layer    Maximum-Head-Change  Column Row Layer    Maximum-Flux-Residual          L2-NORM 
          0                 1           1            35   14     1       0.7732324568E-03      26   48    1         0.5004917966E+00      0.3807764157E+01
          0                 2           1            44   31     1       0.8091080325E-04      45   34    1         0.1532298576E-01      0.1134291870E+00
          0                 3           1            42   32     2       0.4280842969E-04      47   30    1         0.3601095876E-02      0.3144526764E-01
          0                 4           1            44   33     1       0.2086428403E-04      44   33    1         0.1728072952E-02      0.1911480658E-01
          0                 5           1            42   32     2       0.2118822234E-04      47   30    1         0.1308462471E-02      0.1545539766E-01
          0                 6           1            44   33     1       0.1311424584E-04      44   33    1         0.1014933378E-02      0.1352673932E-01
          0                 7           1            41   31     2       0.1536294548E-04      47   30    1         0.8287558344E-03      0.1188822429E-01
          0                 8           1            38   32     2       0.1004223984E-04      44   33    1         0.7517450267E-03      0.1077796653E-01
          0                 9           1            34   32     2       0.1231839165E-04      47   30    1         0.6092258704E-03      0.9560304685E-02
          0                10           1            38   32     2       0.7982636625E-05      44   33    1         0.5911387609E-03      0.8726708141E-02

    ------------------------------------------------
       NWT REQUIRED           10 OUTER ITERATIONS 
       AND A TOTAL OF         10 INNER ITERATIONS.
    ------------------------------------------------

 OUTPUT CONTROL FOR STRESS PERIOD    1   TIME STEP  955
    SAVE HEAD FOR ALL LAYERS
 SOLVING FOR ZETA FOR LAYER     1 ZONE     2

     620 UPPER PART EQS.       611 LOWER PART EQS.    BAND WIDTH + 1 =   29
 STRESS PERIOD=  1 TIMESTEP=955 LAYER=  1 ZONE=  2 ACTIVE CELLS= 1231 NUMBER OF EQUATIONS=    1231
 SOLVING FOR ZETA FOR LAYER     2 ZONE     2

     621 UPPER PART EQS.       632 LOWER PART EQS.    BAND WIDTH + 1 =   34
 STRESS PERIOD=  1 TIMESTEP=955 LAYER=  2 ZONE=  2 ACTIVE CELLS= 1253 NUMBER OF EQUATIONS=    1253
 UBUDSV SAVING "      ZETASRF  1" ON UNIT 55 AT TIME STEP955, STRESS PERIOD    1

 HEAD WILL BE SAVED ON UNIT   51 AT END OF TIME STEP  955, STRESS PERIOD    1
 
 SOLVING FOR HEAD 
                                                   Max.-Head-Change                         Max.-Flux-Residual
  Residual-Control   Outer-Iter.   Inner-Iter.     Column Row Layer    Maximum-Head-Change  Column Row Layer    Maximum-Flux-Residual          L2-NORM 
          0                 1           1            48   33     1      -0.7201409274E-03      49   36    1         0.5109715605E+00      0.3312429956E+01
          0                 2           1            44   31     1      -0.7801592197E-04      45   32    1        -0.1485285786E-01      0.9744882866E-01
          0                 3           1            42   32     2      -0.4400437857E-04      47   30    1        -0.3382982383E-02      0.2804138052E-01
          0                 4           1            44   31     1      -0.1718041139E-04      44   33    1        -0.1565430066E-02      0.1622636004E-01
          0                 5           1            42   32     2      -0.1684572161E-04      47   30    1        -0.1200175722E-02      0.1187331402E-01
          0                 6           1            44   31     1      -0.9242076645E-05      44   33    1        -0.8282167993E-03      0.9645245021E-02

    ------------------------------------------------
       NWT REQUIRED            6 OUTER ITERATIONS 
       AND A TOTAL OF          6 INNER ITERATIONS.
    ------------------------------------------------

 OUTPUT CONTROL FOR STRESS PERIOD    1   TIME STEP  956
    SAVE HEAD FOR ALL LAYERS
 SOLVING FOR ZETA FOR LAYER     1 ZONE     2

     604 UPPER PART EQS.       606 LOWER PART EQS.    BAND WIDTH + 1 =   30
 STRESS PERIOD=  1 TIMESTEP=956 LAYER=  1 ZONE=  2 ACTIVE CELLS= 1210 NUMBER OF EQUATIONS=    1210
 SOLVING FOR ZETA FOR LAYER     2 ZONE     2

     619 UPPER PART EQS.       632 LOWER PART EQS.    BAND WIDTH + 1 =   34
 STRESS PERIOD=  1 TIMESTEP=956 LAYER=  2 ZONE=  2 ACTIVE CELLS= 1251 NUMBER OF EQUATIONS=    1251
 UBUDSV SAVING "      ZETASRF  1" ON UNIT 55 AT TIME STEP956, STRESS PERIOD    1

 HEAD WILL BE SAVED ON UNIT   51 AT END OF TIME STEP  956, STRESS PERIOD    1
 
 SOLVING FOR HEAD 
                                                   Max.-Head-Change                         Max.-Flux-Residual
  Residual-Control   Outer-Iter.   Inner-Iter.     Column Row Layer    Maximum-Head-Change  Column Row Layer    Maximum-Flux-Residual          L2-NORM 
          0                 1           1            36   14     1      -0.7038999672E-03      36   48    1        -0.5058661433E+00      0.3899316093E+01
          0                 2           1            44   31     1       0.6528470673E-04      45   32    1         0.1430379075E-01      0.9428378211E-01
          0                 3           1            42   32     2       0.3225491894E-04      47   30    1         0.2840135639E-02      0.2443657992E-01
          0                 4           1            19   30     1       0.1371422961E-04      44   33    1         0.1232157862E-02      0.1257590719E-01
          0                 5           1            16   33     1       0.1250492230E-04      15   30    1         0.9034940341E-03      0.8537701865E-02
          0                 6           1            19   30     1       0.7469755766E-05      44   33    1         0.5472917386E-03      0.6537815092E-02

    ------------------------------------------------
       NWT REQUIRED            6 OUTER ITERATIONS 
       AND A TOTAL OF          6 INNER ITERATIONS.
    ------------------------------------------------

 OUTPUT CONTROL FOR STRESS PERIOD    1   TIME STEP  957
    SAVE HEAD FOR ALL LAYERS
 SOLVING FOR ZETA FOR LAYER     1 ZONE     2

     620 UPPER PART EQS.       617 LOWER PART EQS.    BAND WIDTH + 1 =   26
 STRESS PERIOD=  1 TIMESTEP=957 LAYER=  1 ZONE=  2 ACTIVE CELLS= 1237 NUMBER OF EQUATIONS=    1237
 SOLVING FOR ZETA FOR LAYER     2 ZONE     2

     621 UPPER PART EQS.       632 LOWER PART EQS.    BAND WIDTH + 1 =   34
 STRESS PERIOD=  1 TIMESTEP=957 LAYER=  2 ZONE=  2 ACTIVE CELLS= 1253 NUMBER OF EQUATIONS=    1253
 UBUDSV SAVING "      ZETASRF  1" ON UNIT 55 AT TIME STEP957, STRESS PERIOD    1

 HEAD WILL BE SAVED ON UNIT   51 AT END OF TIME STEP  957, STRESS PERIOD    1
 
 SOLVING FOR HEAD 
                                                   Max.-Head-Change                         Max.-Flux-Residual
  Residual-Control   Outer-Iter.   Inner-Iter.     Column Row Layer    Maximum-Head-Change  Column Row Layer    Maximum-Flux-Residual          L2-NORM 
          0                 1           1            36   14     1       0.6983025285E-03      26   48    1        -0.5113282395E+00      0.3403364321E+01
          0                 2           1            44   33     1      -0.5505151124E-04      45   32    1        -0.1376872091E-01      0.8855040144E-01
          0                 3           1            42   32     2      -0.2450813943E-04      47   30    1        -0.2392221956E-02      0.1976673850E-01
          0                 4           1            19   30     1      -0.1050719554E-04      44   33    1        -0.1020466578E-02      0.9849860214E-02
          0                 5           1            20   28     2      -0.9399427833E-05      16   33    1        -0.6666774278E-03      0.6999689579E-02

    ------------------------------------------------
       NWT REQUIRED            5 OUTER ITERATIONS 
       AND A TOTAL OF          5 INNER ITERATIONS.
    ------------------------------------------------

 OUTPUT CONTROL FOR STRESS PERIOD    1   TIME STEP  958
    SAVE HEAD FOR ALL LAYERS
 SOLVING FOR ZETA FOR LAYER     1 ZONE     2

     595 UPPER PART EQS.       606 LOWER PART EQS.    BAND WIDTH + 1 =   33
 STRESS PERIOD=  1 TIMESTEP=958 LAYER=  1 ZONE=  2 ACTIVE CELLS= 1201 NUMBER OF EQUATIONS=    1201
 SOLVING FOR ZETA FOR LAYER     2 ZONE     2

     621 UPPER PART EQS.       632 LOWER PART EQS.    BAND WIDTH + 1 =   34
 STRESS PERIOD=  1 TIMESTEP=958 LAYER=  2 ZONE=  2 ACTIVE CELLS= 1253 NUMBER OF EQUATIONS=    1253
 UBUDSV SAVING "      ZETASRF  1" ON UNIT 55 AT TIME STEP958, STRESS PERIOD    1

 HEAD WILL BE SAVED ON UNIT   51 AT END OF TIME STEP  958, STRESS PERIOD    1
 
 SOLVING FOR HEAD 
                                                   Max.-Head-Change                         Max.-Flux-Residual
  Residual-Control   Outer-Iter.   Inner-Iter.     Column Row Layer    Maximum-Head-Change  Column Row Layer    Maximum-Flux-Residual          L2-NORM 
          0                 1           1            48   33     1       0.7073435148E-03      26   48    1         0.4996278844E+00      0.3465509917E+01
          0                 2           1            44   31     1       0.7103554062E-04      45   32    1         0.1449934475E-01      0.8779919753E-01
          0                 3           1            42   32     2       0.3910017815E-04      47   30    1         0.3189739184E-02      0.2554960766E-01
          0                 4           1            44   33     1       0.1679485444E-04      44   33    1         0.1538063721E-02      0.1540422879E-01
          0                 5           1            42   32     2       0.1854597037E-04      47   30    1         0.1113962071E-02      0.1238159496E-01
          0                 6           1            44   33     1       0.1017477923E-04      44   33    1         0.8937755233E-03      0.1081376287E-01
          0                 7           1            41   31     2       0.1304003253E-04      47   30    1         0.6892968119E-03      0.9474934062E-02
          0                 8           1            38   32     2       0.7630818578E-05      44   33    1         0.6625073804E-03      0.8595523729E-02

    ------------------------------------------------
       NWT REQUIRED            8 OUTER ITERATIONS 
       AND A TOTAL OF          8 INNER ITERATIONS.
    ------------------------------------------------

 OUTPUT CONTROL FOR STRESS PERIOD    1   TIME STEP  959
    SAVE HEAD FOR ALL LAYERS
 SOLVING FOR ZETA FOR LAYER     1 ZONE     2

     612 UPPER PART EQS.       620 LOWER PART EQS.    BAND WIDTH + 1 =   30
 STRESS PERIOD=  1 TIMESTEP=959 LAYER=  1 ZONE=  2 ACTIVE CELLS= 1232 NUMBER OF EQUATIONS=    1232
 SOLVING FOR ZETA FOR LAYER     2 ZONE     2

     621 UPPER PART EQS.       632 LOWER PART EQS.    BAND WIDTH + 1 =   34
 STRESS PERIOD=  1 TIMESTEP=959 LAYER=  2 ZONE=  2 ACTIVE CELLS= 1253 NUMBER OF EQUATIONS=    1253
 UBUDSV SAVING "      ZETASRF  1" ON UNIT 55 AT TIME STEP959, STRESS PERIOD    1

 HEAD WILL BE SAVED ON UNIT   51 AT END OF TIME STEP  959, STRESS PERIOD    1
 
 SOLVING FOR HEAD 
                                                   Max.-Head-Change                         Max.-Flux-Residual
  Residual-Control   Outer-Iter.   Inner-Iter.     Column Row Layer    Maximum-Head-Change  Column Row Layer    Maximum-Flux-Residual          L2-NORM 
          0                 1           1            48   35     1      -0.8661397582E-03      14   36    1        -0.5098538876E+00      0.3717102064E+01
          0                 2           1            44   31     1      -0.9282016223E-04      45   36    1        -0.1748371010E-01      0.1215223780E+00
          0                 3           1            42   32     2      -0.5771818146E-04      47   30    1        -0.4024743209E-02      0.3717558316E-01
          0                 4           1            44   31     1      -0.2467571835E-04      44   29    1        -0.2080068121E-02      0.2302008716E-01
          0                 5           1            42   32     2      -0.2785833642E-04      47   30    1        -0.1520970873E-02      0.1818160822E-01
          0                 6           1            44   31     1      -0.1457528523E-04      44   29    1        -0.1235715437E-02      0.1556894455E-01
          0                 7           1            41   31     2      -0.2038948354E-04      47   30    1        -0.8842628084E-03      0.1349054341E-01
          0                 8           1            38   32     2      -0.1036292027E-04      44   29    1        -0.8995848152E-03      0.1221897387E-01
          0                 9           1            34   32     2      -0.1610326871E-04      42   30    2        -0.6153072515E-03      0.1069479807E-01
          0                10           1            38   32     2      -0.8052271013E-05      44   29    1        -0.7081851442E-03      0.9827354715E-02

    ------------------------------------------------
       NWT REQUIRED           10 OUTER ITERATIONS 
       AND A TOTAL OF         10 INNER ITERATIONS.
    ------------------------------------------------

 OUTPUT CONTROL FOR STRESS PERIOD    1   TIME STEP  960
    SAVE HEAD FOR ALL LAYERS
 SOLVING FOR ZETA FOR LAYER     1 ZONE     2

     597 UPPER PART EQS.       609 LOWER PART EQS.    BAND WIDTH + 1 =   35
 STRESS PERIOD=  1 TIMESTEP=960 LAYER=  1 ZONE=  2 ACTIVE CELLS= 1206 NUMBER OF EQUATIONS=    1206
 SOLVING FOR ZETA FOR LAYER     2 ZONE     2

     621 UPPER PART EQS.       632 LOWER PART EQS.    BAND WIDTH + 1 =   34
 STRESS PERIOD=  1 TIMESTEP=960 LAYER=  2 ZONE=  2 ACTIVE CELLS= 1253 NUMBER OF EQUATIONS=    1253
 UBUDSV SAVING "      ZETASRF  1" ON UNIT 55 AT TIME STEP960, STRESS PERIOD    1

 HEAD WILL BE SAVED ON UNIT   51 AT END OF TIME STEP  960, STRESS PERIOD    1
 
 SOLVING FOR HEAD 
                                                   Max.-Head-Change                         Max.-Flux-Residual
  Residual-Control   Outer-Iter.   Inner-Iter.     Column Row Layer    Maximum-Head-Change  Column Row Layer    Maximum-Flux-Residual          L2-NORM 
          0                 1           1            48   35     1       0.8604948720E-03      36   48    1        -0.5098031192E+00      0.3737922869E+01
          0                 2           1            44   31     1       0.9213767634E-04      45   36    1         0.1730049121E-01      0.1191976220E+00
          0                 3           1            43   31     2       0.5584877740E-04      47   30    1         0.3951095618E-02      0.3573591428E-01
          0                 4           1            44   31     1       0.2280964330E-04      44   29    1         0.1955427266E-02      0.2158163230E-01
          0                 5           1            42   32     2       0.2472471126E-04      47   30    1         0.1422001425E-02      0.1682707266E-01
          0                 6           1            44   31     1       0.1285172507E-04      44   29    1         0.1106000027E-02      0.1434404072E-01
          0                 7           1            41   31     2       0.1740949200E-04      47   30    1         0.7926578175E-03      0.1236011968E-01
          0                 8           1            38   32     2       0.9285490765E-05      44   29    1         0.7851295722E-03      0.1120127214E-01

    ------------------------------------------------
       NWT REQUIRED            8 OUTER ITERATIONS 
       AND A TOTAL OF          8 INNER ITERATIONS.
    ------------------------------------------------

 OUTPUT CONTROL FOR STRESS PERIOD    1   TIME STEP  961
    SAVE HEAD FOR ALL LAYERS
 SOLVING FOR ZETA FOR LAYER     1 ZONE     2

     606 UPPER PART EQS.       616 LOWER PART EQS.    BAND WIDTH + 1 =   31
 STRESS PERIOD=  1 TIMESTEP=961 LAYER=  1 ZONE=  2 ACTIVE CELLS= 1222 NUMBER OF EQUATIONS=    1222
 SOLVING FOR ZETA FOR LAYER     2 ZONE     2

     621 UPPER PART EQS.       632 LOWER PART EQS.    BAND WIDTH + 1 =   34
 STRESS PERIOD=  1 TIMESTEP=961 LAYER=  2 ZONE=  2 ACTIVE CELLS= 1253 NUMBER OF EQUATIONS=    1253
 UBUDSV SAVING "      ZETASRF  1" ON UNIT 55 AT TIME STEP961, STRESS PERIOD    1

 HEAD WILL BE SAVED ON UNIT   51 AT END OF TIME STEP  961, STRESS PERIOD    1
 
 SOLVING FOR HEAD 
                                                   Max.-Head-Change                         Max.-Flux-Residual
  Residual-Control   Outer-Iter.   Inner-Iter.     Column Row Layer    Maximum-Head-Change  Column Row Layer    Maximum-Flux-Residual          L2-NORM 
          0                 1           1            48   33     1      -0.7012314612E-03      26   14    1        -0.5105965407E+00      0.3189240296E+01
          0                 2           1            44   31     1      -0.6427696644E-04      45   32    1        -0.1414649391E-01      0.8854955248E-01
          0                 3           1            43   31     2      -0.2869804005E-04      47   30    1        -0.2821591541E-02      0.2129526530E-01
          0                 4           1            19   30     1      -0.1268533540E-04      44   33    1        -0.1159619109E-02      0.1070905869E-01
          0                 5           1            16   33     1      -0.1039546603E-04      15   30    1        -0.8212011619E-03      0.7343282108E-02
          0                 6           1            19   30     1      -0.6960756151E-05      44   33    1        -0.4887260368E-03      0.5643284977E-02

    ------------------------------------------------
       NWT REQUIRED            6 OUTER ITERATIONS 
       AND A TOTAL OF          6 INNER ITERATIONS.
    ------------------------------------------------

 OUTPUT CONTROL FOR STRESS PERIOD    1   TIME STEP  962
    SAVE HEAD FOR ALL LAYERS
 SOLVING FOR ZETA FOR LAYER     1 ZONE     2

     604 UPPER PART EQS.       603 LOWER PART EQS.    BAND WIDTH + 1 =   29
 STRESS PERIOD=  1 TIMESTEP=962 LAYER=  1 ZONE=  2 ACTIVE CELLS= 1207 NUMBER OF EQUATIONS=    1207
 SOLVING FOR ZETA FOR LAYER     2 ZONE     2

     621 UPPER PART EQS.       632 LOWER PART EQS.    BAND WIDTH + 1 =   34
 STRESS PERIOD=  1 TIMESTEP=962 LAYER=  2 ZONE=  2 ACTIVE CELLS= 1253 NUMBER OF EQUATIONS=    1253
 UBUDSV SAVING "      ZETASRF  1" ON UNIT 55 AT TIME STEP962, STRESS PERIOD    1

 HEAD WILL BE SAVED ON UNIT   51 AT END OF TIME STEP  962, STRESS PERIOD    1
 
 SOLVING FOR HEAD 
                                                   Max.-Head-Change                         Max.-Flux-Residual
  Residual-Control   Outer-Iter.   Inner-Iter.     Column Row Layer    Maximum-Head-Change  Column Row Layer    Maximum-Flux-Residual          L2-NORM 
          0                 1           1            48   32     1       0.6887981501E-03      26   48    1         0.4988280133E+00      0.3696406278E+01
          0                 2           1            44   33     1       0.5440951559E-04      45   32    1         0.1378789644E-01      0.7808931110E-01
          0                 3           1            43   31     2       0.2532824670E-04      47   30    1         0.2337249142E-02      0.1756394638E-01
          0                 4           1            20   32     2       0.1038242701E-04      44   33    1         0.9915328108E-03      0.9316834539E-02
          0                 5           1            20   28     2       0.8971940625E-05      46   31    1         0.6723308501E-03      0.6784018379E-02

    ------------------------------------------------
       NWT REQUIRED            5 OUTER ITERATIONS 
       AND A TOTAL OF          5 INNER ITERATIONS.
    ------------------------------------------------

 OUTPUT CONTROL FOR STRESS PERIOD    1   TIME STEP  963
    SAVE HEAD FOR ALL LAYERS
 SOLVING FOR ZETA FOR LAYER     1 ZONE     2

     614 UPPER PART EQS.       610 LOWER PART EQS.    BAND WIDTH + 1 =   28
 STRESS PERIOD=  1 TIMESTEP=963 LAYER=  1 ZONE=  2 ACTIVE CELLS= 1224 NUMBER OF EQUATIONS=    1224
 SOLVING FOR ZETA FOR LAYER     2 ZONE     2

     621 UPPER PART EQS.       632 LOWER PART EQS.    BAND WIDTH + 1 =   34
 STRESS PERIOD=  1 TIMESTEP=963 LAYER=  2 ZONE=  2 ACTIVE CELLS= 1253 NUMBER OF EQUATIONS=    1253
 UBUDSV SAVING "      ZETASRF  1" ON UNIT 55 AT TIME STEP963, STRESS PERIOD    1

 HEAD WILL BE SAVED ON UNIT   51 AT END OF TIME STEP  963, STRESS PERIOD    1
 
 SOLVING FOR HEAD 
                                                   Max.-Head-Change                         Max.-Flux-Residual
  Residual-Control   Outer-Iter.   Inner-Iter.     Column Row Layer    Maximum-Head-Change  Column Row Layer    Maximum-Flux-Residual          L2-NORM 
          0                 1           1            48   32     1      -0.6980415577E-03      14   26    1        -0.5095962909E+00      0.3920379024E+01
          0                 2           1            44   31     1      -0.6641139567E-04      45   32    1        -0.1433615552E-01      0.8877830013E-01
          0                 3           1            42   32     2      -0.3796825777E-04      47   30    1        -0.2882099615E-02      0.2433885715E-01
          0                 4           1            43   30     1      -0.1546586649E-04      44   33    1        -0.1401645461E-02      0.1446604587E-01
          0                 5           1            42   32     2      -0.1601672119E-04      47   30    1        -0.1044533616E-02      0.1130844241E-01
          0                 6           1            43   30     1      -0.9190838106E-05      44   33    1        -0.8129609575E-03      0.9726997082E-02

    ------------------------------------------------
       NWT REQUIRED            6 OUTER ITERATIONS 
       AND A TOTAL OF          6 INNER ITERATIONS.
    ------------------------------------------------

 OUTPUT CONTROL FOR STRESS PERIOD    1   TIME STEP  964
    SAVE HEAD FOR ALL LAYERS
 SOLVING FOR ZETA FOR LAYER     1 ZONE     2

     598 UPPER PART EQS.       605 LOWER PART EQS.    BAND WIDTH + 1 =   33
 STRESS PERIOD=  1 TIMESTEP=964 LAYER=  1 ZONE=  2 ACTIVE CELLS= 1203 NUMBER OF EQUATIONS=    1203
 SOLVING FOR ZETA FOR LAYER     2 ZONE     2

     621 UPPER PART EQS.       632 LOWER PART EQS.    BAND WIDTH + 1 =   34
 STRESS PERIOD=  1 TIMESTEP=964 LAYER=  2 ZONE=  2 ACTIVE CELLS= 1253 NUMBER OF EQUATIONS=    1253
 UBUDSV SAVING "      ZETASRF  1" ON UNIT 55 AT TIME STEP964, STRESS PERIOD    1

 HEAD WILL BE SAVED ON UNIT   51 AT END OF TIME STEP  964, STRESS PERIOD    1
 
 SOLVING FOR HEAD 
                                                   Max.-Head-Change                         Max.-Flux-Residual
  Residual-Control   Outer-Iter.   Inner-Iter.     Column Row Layer    Maximum-Head-Change  Column Row Layer    Maximum-Flux-Residual          L2-NORM 
          0                 1           1            48   33     1       0.7186286338E-03      14   36    1         0.4971188394E+00      0.3292068983E+01
          0                 2           1            44   31     1       0.8129761353E-04      45   32    1         0.1489352891E-01      0.1036199184E+00
          0                 3           1            42   32     2       0.4643242072E-04      47   30    1         0.3588124313E-02      0.3261372690E-01
          0                 4           1            43   30     1       0.2086101810E-04      44   33    1         0.1784933252E-02      0.2042928188E-01
          0                 5           1            42   32     2       0.2405990210E-04      47   30    1         0.1304183565E-02      0.1669578967E-01
          0                 6           1            44   33     1       0.1276440196E-04      44   33    1         0.1106539982E-02      0.1472345652E-01
          0                 7           1            41   31     2       0.1795518034E-04      47   30    1         0.8156337615E-03      0.1289466477E-01
          0                 8           1            38   32     2       0.9742756169E-05      44   33    1         0.8661002405E-03      0.1176378715E-01

    ------------------------------------------------
       NWT REQUIRED            8 OUTER ITERATIONS 
       AND A TOTAL OF          8 INNER ITERATIONS.
    ------------------------------------------------

 OUTPUT CONTROL FOR STRESS PERIOD    1   TIME STEP  965
    SAVE HEAD FOR ALL LAYERS
 SOLVING FOR ZETA FOR LAYER     1 ZONE     2

     616 UPPER PART EQS.       614 LOWER PART EQS.    BAND WIDTH + 1 =   26
 STRESS PERIOD=  1 TIMESTEP=965 LAYER=  1 ZONE=  2 ACTIVE CELLS= 1230 NUMBER OF EQUATIONS=    1230
 SOLVING FOR ZETA FOR LAYER     2 ZONE     2

     621 UPPER PART EQS.       632 LOWER PART EQS.    BAND WIDTH + 1 =   34
 STRESS PERIOD=  1 TIMESTEP=965 LAYER=  2 ZONE=  2 ACTIVE CELLS= 1253 NUMBER OF EQUATIONS=    1253
 UBUDSV SAVING "      ZETASRF  1" ON UNIT 55 AT TIME STEP965, STRESS PERIOD    1

 HEAD WILL BE SAVED ON UNIT   51 AT END OF TIME STEP  965, STRESS PERIOD    1
 
 SOLVING FOR HEAD 
                                                   Max.-Head-Change                         Max.-Flux-Residual
  Residual-Control   Outer-Iter.   Inner-Iter.     Column Row Layer    Maximum-Head-Change  Column Row Layer    Maximum-Flux-Residual          L2-NORM 
          0                 1           1            48   34     1      -0.7638168846E-03      26   48    1        -0.5099540137E+00      0.3572389963E+01
          0                 2           1            44   31     1      -0.7902457291E-04      45   34    1        -0.1496523256E-01      0.1066063748E+00
          0                 3           1            43   31     2      -0.4247391097E-04      47   30    1        -0.3503560660E-02      0.2991340061E-01
          0                 4           1            44   31     1      -0.1935838991E-04      44   33    1        -0.1637885668E-02      0.1792127390E-01
          0                 5           1            42   32     2      -0.1922238679E-04      47   30    1        -0.1247393069E-02      0.1431038930E-01
          0                 6           1            44   33     1      -0.1187155460E-04      44   33    1        -0.9150225906E-03      0.1244561922E-01
          0                 7           1            42   32     2      -0.1337067920E-04      47   30    1        -0.7709299811E-03      0.1093844203E-01
          0                 8           1            38   32     2      -0.9044375575E-05      44   33    1        -0.6659941868E-03      0.9893437032E-02

    ------------------------------------------------
       NWT REQUIRED            8 OUTER ITERATIONS 
       AND A TOTAL OF          8 INNER ITERATIONS.
    ------------------------------------------------

 OUTPUT CONTROL FOR STRESS PERIOD    1   TIME STEP  966
    SAVE HEAD FOR ALL LAYERS
 SOLVING FOR ZETA FOR LAYER     1 ZONE     2

     608 UPPER PART EQS.       609 LOWER PART EQS.    BAND WIDTH + 1 =   26
 STRESS PERIOD=  1 TIMESTEP=966 LAYER=  1 ZONE=  2 ACTIVE CELLS= 1217 NUMBER OF EQUATIONS=    1217
 SOLVING FOR ZETA FOR LAYER     2 ZONE     2

     621 UPPER PART EQS.       632 LOWER PART EQS.    BAND WIDTH + 1 =   34
 STRESS PERIOD=  1 TIMESTEP=966 LAYER=  2 ZONE=  2 ACTIVE CELLS= 1253 NUMBER OF EQUATIONS=    1253
 UBUDSV SAVING "      ZETASRF  1" ON UNIT 55 AT TIME STEP966, STRESS PERIOD    1

 HEAD WILL BE SAVED ON UNIT   51 AT END OF TIME STEP  966, STRESS PERIOD    1
 
 SOLVING FOR HEAD 
                                                   Max.-Head-Change                         Max.-Flux-Residual
  Residual-Control   Outer-Iter.   Inner-Iter.     Column Row Layer    Maximum-Head-Change  Column Row Layer    Maximum-Flux-Residual          L2-NORM 
          0                 1           1            48   34     1       0.7655602501E-03      26   48    1         0.4980941319E+00      0.3504632562E+01
          0                 2           1            44   31     1       0.8021154674E-04      45   34    1         0.1504089375E-01      0.1054072944E+00
          0                 3           1            43   31     2       0.4331592910E-04      47   30    1         0.3569586169E-02      0.2946964670E-01
          0                 4           1            44   31     1       0.1939933568E-04      44   33    1         0.1647755297E-02      0.1740971688E-01
          0                 5           1            42   32     2       0.1929526907E-04      47   30    1         0.1221189437E-02      0.1362029715E-01
          0                 6           1            44   33     1       0.1149251706E-04      44   33    1         0.9467120042E-03      0.1166788703E-01
          0                 7           1            41   31     2       0.1351647515E-04      47   30    1         0.7125146831E-03      0.1013361077E-01
          0                 8           1            38   32     2       0.8306299898E-05      44   33    1         0.6888377785E-03      0.9153134071E-02

    ------------------------------------------------
       NWT REQUIRED            8 OUTER ITERATIONS 
       AND A TOTAL OF          8 INNER ITERATIONS.
    ------------------------------------------------

 OUTPUT CONTROL FOR STRESS PERIOD    1   TIME STEP  967
    SAVE HEAD FOR ALL LAYERS
 SOLVING FOR ZETA FOR LAYER     1 ZONE     2

     609 UPPER PART EQS.       612 LOWER PART EQS.    BAND WIDTH + 1 =   27
 STRESS PERIOD=  1 TIMESTEP=967 LAYER=  1 ZONE=  2 ACTIVE CELLS= 1221 NUMBER OF EQUATIONS=    1221
 SOLVING FOR ZETA FOR LAYER     2 ZONE     2

     621 UPPER PART EQS.       632 LOWER PART EQS.    BAND WIDTH + 1 =   34
 STRESS PERIOD=  1 TIMESTEP=967 LAYER=  2 ZONE=  2 ACTIVE CELLS= 1253 NUMBER OF EQUATIONS=    1253
 UBUDSV SAVING "      ZETASRF  1" ON UNIT 55 AT TIME STEP967, STRESS PERIOD    1

 HEAD WILL BE SAVED ON UNIT   51 AT END OF TIME STEP  967, STRESS PERIOD    1
 
 SOLVING FOR HEAD 
                                                   Max.-Head-Change                         Max.-Flux-Residual
  Residual-Control   Outer-Iter.   Inner-Iter.     Column Row Layer    Maximum-Head-Change  Column Row Layer    Maximum-Flux-Residual          L2-NORM 
          0                 1           1            48   33     1      -0.7160386538E-03      49   36    1         0.5096751012E+00      0.3773918194E+01
          0                 2           1            44   31     1      -0.7645569602E-04      45   32    1        -0.1475720028E-01      0.1013091611E+00
          0                 3           1            42   32     2      -0.4318346941E-04      47   30    1        -0.3309472015E-02      0.2815944970E-01
          0                 4           1            43   30     1      -0.1847443084E-04      44   33    1        -0.1556999858E-02      0.1688553483E-01
          0                 5           1            42   32     2      -0.1807621807E-04      47   30    1        -0.1241239491E-02      0.1300925002E-01
          0                 6           1            44   31     1      -0.1084904793E-04      44   33    1        -0.8785488211E-03      0.1100223511E-01
          0                 7           1            41   31     2      -0.1252777446E-04      47   30    1        -0.7156852508E-03      0.9470024760E-02
          0                 8           1            38   32     2      -0.7749825507E-05      44   33    1        -0.6052243343E-03      0.8543871169E-02

    ------------------------------------------------
       NWT REQUIRED            8 OUTER ITERATIONS 
       AND A TOTAL OF          8 INNER ITERATIONS.
    ------------------------------------------------

 OUTPUT CONTROL FOR STRESS PERIOD    1   TIME STEP  968
    SAVE HEAD FOR ALL LAYERS
 SOLVING FOR ZETA FOR LAYER     1 ZONE     2

     598 UPPER PART EQS.       614 LOWER PART EQS.    BAND WIDTH + 1 =   39
 STRESS PERIOD=  1 TIMESTEP=968 LAYER=  1 ZONE=  2 ACTIVE CELLS= 1212 NUMBER OF EQUATIONS=    1212
 SOLVING FOR ZETA FOR LAYER     2 ZONE     2

     621 UPPER PART EQS.       632 LOWER PART EQS.    BAND WIDTH + 1 =   34
 STRESS PERIOD=  1 TIMESTEP=968 LAYER=  2 ZONE=  2 ACTIVE CELLS= 1253 NUMBER OF EQUATIONS=    1253
 UBUDSV SAVING "      ZETASRF  1" ON UNIT 55 AT TIME STEP968, STRESS PERIOD    1

 HEAD WILL BE SAVED ON UNIT   51 AT END OF TIME STEP  968, STRESS PERIOD    1
 
 SOLVING FOR HEAD 
                                                   Max.-Head-Change                         Max.-Flux-Residual
  Residual-Control   Outer-Iter.   Inner-Iter.     Column Row Layer    Maximum-Head-Change  Column Row Layer    Maximum-Flux-Residual          L2-NORM 
          0                 1           1            48   32     1       0.6971162281E-03      36   48    1         0.4964690077E+00      0.3690938929E+01
          0                 2           1            44   31     1       0.6586574901E-04      45   32    1         0.1427645129E-01      0.8684026519E-01
          0                 3           1            42   32     2       0.3436963903E-04      47   30    1         0.2885019538E-02      0.2398100317E-01
          0                 4           1            19   30     1       0.1429228263E-04      44   33    1         0.1319987536E-02      0.1368165536E-01
          0                 5           1            20   28     2       0.1461176377E-04      46   31    1         0.9272618427E-03      0.1060497848E-01
          0                 6           1            19   30     1       0.8406471056E-05      44   33    1         0.7272013120E-03      0.9099264763E-02

    ------------------------------------------------
       NWT REQUIRED            6 OUTER ITERATIONS 
       AND A TOTAL OF          6 INNER ITERATIONS.
    ------------------------------------------------

 OUTPUT CONTROL FOR STRESS PERIOD    1   TIME STEP  969
    SAVE HEAD FOR ALL LAYERS
 SOLVING FOR ZETA FOR LAYER     1 ZONE     2

     617 UPPER PART EQS.       617 LOWER PART EQS.    BAND WIDTH + 1 =   26
 STRESS PERIOD=  1 TIMESTEP=969 LAYER=  1 ZONE=  2 ACTIVE CELLS= 1234 NUMBER OF EQUATIONS=    1234
 SOLVING FOR ZETA FOR LAYER     2 ZONE     2

     621 UPPER PART EQS.       632 LOWER PART EQS.    BAND WIDTH + 1 =   34
 STRESS PERIOD=  1 TIMESTEP=969 LAYER=  2 ZONE=  2 ACTIVE CELLS= 1253 NUMBER OF EQUATIONS=    1253
 UBUDSV SAVING "      ZETASRF  1" ON UNIT 55 AT TIME STEP969, STRESS PERIOD    1

 HEAD WILL BE SAVED ON UNIT   51 AT END OF TIME STEP  969, STRESS PERIOD    1
 
 SOLVING FOR HEAD 
                                                   Max.-Head-Change                         Max.-Flux-Residual
  Residual-Control   Outer-Iter.   Inner-Iter.     Column Row Layer    Maximum-Head-Change  Column Row Layer    Maximum-Flux-Residual          L2-NORM 
          0                 1           1            48   32     1      -0.6851119407E-03      26   14    1        -0.5092357537E+00      0.3415833443E+01
          0                 2           1            44   33     1      -0.5328323460E-04      45   32    1        -0.1360298446E-01      0.8280986071E-01
          0                 3           1            43   31     2      -0.2270461228E-04      47   30    1        -0.2274701394E-02      0.1807887717E-01
          0                 4           1            19   30     1      -0.9386808788E-05      44   33    1        -0.9448115421E-03      0.8769273615E-02

    ------------------------------------------------
       NWT REQUIRED            4 OUTER ITERATIONS 
       AND A TOTAL OF          4 INNER ITERATIONS.
    ------------------------------------------------

 OUTPUT CONTROL FOR STRESS PERIOD    1   TIME STEP  970
    SAVE HEAD FOR ALL LAYERS
 SOLVING FOR ZETA FOR LAYER     1 ZONE     2

     606 UPPER PART EQS.       608 LOWER PART EQS.    BAND WIDTH + 1 =   28
 STRESS PERIOD=  1 TIMESTEP=970 LAYER=  1 ZONE=  2 ACTIVE CELLS= 1214 NUMBER OF EQUATIONS=    1214
 SOLVING FOR ZETA FOR LAYER     2 ZONE     2

     621 UPPER PART EQS.       632 LOWER PART EQS.    BAND WIDTH + 1 =   34
 STRESS PERIOD=  1 TIMESTEP=970 LAYER=  2 ZONE=  2 ACTIVE CELLS= 1253 NUMBER OF EQUATIONS=    1253
 UBUDSV SAVING "      ZETASRF  1" ON UNIT 55 AT TIME STEP970, STRESS PERIOD    1

 HEAD WILL BE SAVED ON UNIT   51 AT END OF TIME STEP  970, STRESS PERIOD    1
 
 SOLVING FOR HEAD 
                                                   Max.-Head-Change                         Max.-Flux-Residual
  Residual-Control   Outer-Iter.   Inner-Iter.     Column Row Layer    Maximum-Head-Change  Column Row Layer    Maximum-Flux-Residual          L2-NORM 
          0                 1           1            48   33     1       0.7010803125E-03      26   48    1         0.4972799611E+00      0.3127586565E+01
          0                 2           1            44   31     1       0.6918745814E-04      45   32    1         0.1432740445E-01      0.8559923552E-01
          0                 3           1            42   32     2       0.3860935169E-04      47   30    1         0.3088643465E-02      0.2466798659E-01
          0                 4           1            44   33     1       0.1681688370E-04      44   33    1         0.1492139197E-02      0.1528428064E-01
          0                 5           1            42   32     2       0.1821849959E-04      47   30    1         0.1126095288E-02      0.1241157996E-01
          0                 6           1            44   33     1       0.1034785628E-04      44   33    1         0.8900637009E-03      0.1087134452E-01
          0                 7           1            41   31     2       0.1290415253E-04      47   30    1         0.7062651607E-03      0.9544108652E-02
          0                 8           1            38   32     2       0.7756111884E-05      44   33    1         0.6603640153E-03      0.8666220850E-02

    ------------------------------------------------
       NWT REQUIRED            8 OUTER ITERATIONS 
       AND A TOTAL OF          8 INNER ITERATIONS.
    ------------------------------------------------

 OUTPUT CONTROL FOR STRESS PERIOD    1   TIME STEP  971
    SAVE HEAD FOR ALL LAYERS
 SOLVING FOR ZETA FOR LAYER     1 ZONE     2

     622 UPPER PART EQS.       609 LOWER PART EQS.    BAND WIDTH + 1 =   30
 STRESS PERIOD=  1 TIMESTEP=971 LAYER=  1 ZONE=  2 ACTIVE CELLS= 1231 NUMBER OF EQUATIONS=    1231
 SOLVING FOR ZETA FOR LAYER     2 ZONE     2

     621 UPPER PART EQS.       630 LOWER PART EQS.    BAND WIDTH + 1 =   34
 STRESS PERIOD=  1 TIMESTEP=971 LAYER=  2 ZONE=  2 ACTIVE CELLS= 1251 NUMBER OF EQUATIONS=    1251
 UBUDSV SAVING "      ZETASRF  1" ON UNIT 55 AT TIME STEP971, STRESS PERIOD    1

 HEAD WILL BE SAVED ON UNIT   51 AT END OF TIME STEP  971, STRESS PERIOD    1
 
 SOLVING FOR HEAD 
                                                   Max.-Head-Change                         Max.-Flux-Residual
  Residual-Control   Outer-Iter.   Inner-Iter.     Column Row Layer    Maximum-Head-Change  Column Row Layer    Maximum-Flux-Residual          L2-NORM 
          0                 1           1            48   35     1      -0.8646363038E-03      36   48    1        -0.5081960204E+00      0.4044101400E+01
          0                 2           1            44   31     1      -0.9360591750E-04      45   36    1        -0.1745524729E-01      0.1304015721E+00
          0                 3           1            42   32     2      -0.5629034305E-04      47   30    1        -0.4103569400E-02      0.3930651418E-01
          0                 4           1            43   30     1      -0.2627132550E-04      44   29    1        -0.2134316653E-02      0.2442975298E-01
          0                 5           1            42   32     2      -0.2967279508E-04      47   30    1        -0.1554299915E-02      0.1966972956E-01
          0                 6           1            44   31     1      -0.1583627517E-04      44   29    1        -0.1303407801E-02      0.1707977857E-01
          0                 7           1            41   31     2      -0.2263034321E-04      47   30    1        -0.9489918721E-03      0.1495858106E-01
          0                 8           1            38   32     2      -0.1156805776E-04      44   29    1        -0.9897371008E-03      0.1354239005E-01
          0                 9           1            34   32     2      -0.1832133702E-04      42   30    2        -0.6783825172E-03      0.1190217514E-01
          0                10           1            38   32     2      -0.8954367617E-05      44   29    1        -0.7909097038E-03      0.1087839960E-01

    ------------------------------------------------
       NWT REQUIRED           10 OUTER ITERATIONS 
       AND A TOTAL OF         10 INNER ITERATIONS.
    ------------------------------------------------

 OUTPUT CONTROL FOR STRESS PERIOD    1   TIME STEP  972
    SAVE HEAD FOR ALL LAYERS
 SOLVING FOR ZETA FOR LAYER     1 ZONE     2

     600 UPPER PART EQS.       604 LOWER PART EQS.    BAND WIDTH + 1 =   29
 STRESS PERIOD=  1 TIMESTEP=972 LAYER=  1 ZONE=  2 ACTIVE CELLS= 1204 NUMBER OF EQUATIONS=    1204
 SOLVING FOR ZETA FOR LAYER     2 ZONE     2

     621 UPPER PART EQS.       632 LOWER PART EQS.    BAND WIDTH + 1 =   34
 STRESS PERIOD=  1 TIMESTEP=972 LAYER=  2 ZONE=  2 ACTIVE CELLS= 1253 NUMBER OF EQUATIONS=    1253
 UBUDSV SAVING "      ZETASRF  1" ON UNIT 55 AT TIME STEP972, STRESS PERIOD    1

 HEAD WILL BE SAVED ON UNIT   51 AT END OF TIME STEP  972, STRESS PERIOD    1
 
 SOLVING FOR HEAD 
                                                   Max.-Head-Change                         Max.-Flux-Residual
  Residual-Control   Outer-Iter.   Inner-Iter.     Column Row Layer    Maximum-Head-Change  Column Row Layer    Maximum-Flux-Residual          L2-NORM 
          0                 1           1            48   35     1       0.8566882347E-03      36   48    1         0.4963974942E+00      0.3716658487E+01
          0                 2           1            44   31     1       0.9233283390E-04      45   36    1         0.1720705021E-01      0.1269966845E+00
          0                 3           1            42   32     2       0.5356974888E-04      47   30    1         0.4036123795E-02      0.3811877036E-01
          0                 4           1            44   31     1       0.2502632278E-04      44   29    1         0.2034339482E-02      0.2378242811E-01
          0                 5           1            42   32     2       0.2783077013E-04      47   30    1         0.1490731808E-02      0.1932116549E-01
          0                 6           1            44   31     1       0.1521973225E-04      44   29    1         0.1223635449E-02      0.1692000448E-01
          0                 7           1            41   31     2       0.2083015618E-04      47   30    1         0.9174446523E-03      0.1484165359E-01
          0                 8           1            38   32     2       0.1157104550E-04      44   29    1         0.9312844834E-03      0.1348528370E-01
          0                 9           1            34   32     2       0.1709541066E-04      42   30    2         0.6665534954E-03      0.1187705775E-01
          0                10           1            38   32     2       0.9103066049E-05      44   29    1         0.7477031488E-03      0.1086865818E-01

    ------------------------------------------------
       NWT REQUIRED           10 OUTER ITERATIONS 
       AND A TOTAL OF         10 INNER ITERATIONS.
    ------------------------------------------------

 OUTPUT CONTROL FOR STRESS PERIOD    1   TIME STEP  973
    SAVE HEAD FOR ALL LAYERS
 SOLVING FOR ZETA FOR LAYER     1 ZONE     2

     616 UPPER PART EQS.       613 LOWER PART EQS.    BAND WIDTH + 1 =   25
 STRESS PERIOD=  1 TIMESTEP=973 LAYER=  1 ZONE=  2 ACTIVE CELLS= 1229 NUMBER OF EQUATIONS=    1229
 SOLVING FOR ZETA FOR LAYER     2 ZONE     2

     621 UPPER PART EQS.       632 LOWER PART EQS.    BAND WIDTH + 1 =   34
 STRESS PERIOD=  1 TIMESTEP=973 LAYER=  2 ZONE=  2 ACTIVE CELLS= 1253 NUMBER OF EQUATIONS=    1253
 UBUDSV SAVING "      ZETASRF  1" ON UNIT 55 AT TIME STEP973, STRESS PERIOD    1

 HEAD WILL BE SAVED ON UNIT   51 AT END OF TIME STEP  973, STRESS PERIOD    1
 
 SOLVING FOR HEAD 
                                                   Max.-Head-Change                         Max.-Flux-Residual
  Residual-Control   Outer-Iter.   Inner-Iter.     Column Row Layer    Maximum-Head-Change  Column Row Layer    Maximum-Flux-Residual          L2-NORM 
          0                 1           1            48   33     1      -0.6976843496E-03      26   14    1        -0.5085600307E+00      0.2984198052E+01
          0                 2           1            44   31     1      -0.6457881265E-04      45   32    1        -0.1408697299E-01      0.8681017292E-01
          0                 3           1            43   31     2      -0.2903018117E-04      47   30    1        -0.2878641235E-02      0.2162409538E-01
          0                 4           1            19   30     1      -0.1317672442E-04      44   33    1        -0.1197899572E-02      0.1140474652E-01
          0                 5           1            16   33     1      -0.1124632465E-04      15   30    1        -0.8560425453E-03      0.8374934807E-02
          0                 6           1            19   30     1      -0.7643464243E-05      44   33    1        -0.5648273306E-03      0.6917651869E-02

    ------------------------------------------------
       NWT REQUIRED            6 OUTER ITERATIONS 
       AND A TOTAL OF          6 INNER ITERATIONS.
    ------------------------------------------------

 OUTPUT CONTROL FOR STRESS PERIOD    1   TIME STEP  974
    SAVE HEAD FOR ALL LAYERS
 SOLVING FOR ZETA FOR LAYER     1 ZONE     2

     607 UPPER PART EQS.       606 LOWER PART EQS.    BAND WIDTH + 1 =   27
 STRESS PERIOD=  1 TIMESTEP=974 LAYER=  1 ZONE=  2 ACTIVE CELLS= 1213 NUMBER OF EQUATIONS=    1213
 SOLVING FOR ZETA FOR LAYER     2 ZONE     2

     621 UPPER PART EQS.       632 LOWER PART EQS.    BAND WIDTH + 1 =   34
 STRESS PERIOD=  1 TIMESTEP=974 LAYER=  2 ZONE=  2 ACTIVE CELLS= 1253 NUMBER OF EQUATIONS=    1253
 UBUDSV SAVING "      ZETASRF  1" ON UNIT 55 AT TIME STEP974, STRESS PERIOD    1

 HEAD WILL BE SAVED ON UNIT   51 AT END OF TIME STEP  974, STRESS PERIOD    1
 
 SOLVING FOR HEAD 
                                                   Max.-Head-Change                         Max.-Flux-Residual
  Residual-Control   Outer-Iter.   Inner-Iter.     Column Row Layer    Maximum-Head-Change  Column Row Layer    Maximum-Flux-Residual          L2-NORM 
          0                 1           1            36   13     1       0.7026352833E-03      36   49    1         0.5030246752E+00      0.3744615297E+01
          0                 2           1            44   33     1       0.5426828021E-04      45   32    1         0.1370108950E-01      0.8551960545E-01
          0                 3           1            43   31     2       0.2347134478E-04      47   30    1         0.2376600154E-02      0.1944576758E-01
          0                 4           1            19   30     1       0.9632200152E-05      44   33    1         0.9506216790E-03      0.9264280895E-02

    ------------------------------------------------
       NWT REQUIRED            4 OUTER ITERATIONS 
       AND A TOTAL OF          4 INNER ITERATIONS.
    ------------------------------------------------

 OUTPUT CONTROL FOR STRESS PERIOD    1   TIME STEP  975
    SAVE HEAD FOR ALL LAYERS
 SOLVING FOR ZETA FOR LAYER     1 ZONE     2

     611 UPPER PART EQS.       615 LOWER PART EQS.    BAND WIDTH + 1 =   27
 STRESS PERIOD=  1 TIMESTEP=975 LAYER=  1 ZONE=  2 ACTIVE CELLS= 1226 NUMBER OF EQUATIONS=    1226
 SOLVING FOR ZETA FOR LAYER     2 ZONE     2

     621 UPPER PART EQS.       632 LOWER PART EQS.    BAND WIDTH + 1 =   34
 STRESS PERIOD=  1 TIMESTEP=975 LAYER=  2 ZONE=  2 ACTIVE CELLS= 1253 NUMBER OF EQUATIONS=    1253
 UBUDSV SAVING "      ZETASRF  1" ON UNIT 55 AT TIME STEP975, STRESS PERIOD    1

 HEAD WILL BE SAVED ON UNIT   51 AT END OF TIME STEP  975, STRESS PERIOD    1
 
 SOLVING FOR HEAD 
                                                   Max.-Head-Change                         Max.-Flux-Residual
  Residual-Control   Outer-Iter.   Inner-Iter.     Column Row Layer    Maximum-Head-Change  Column Row Layer    Maximum-Flux-Residual          L2-NORM 
          0                 1           1            48   32     1      -0.6935727479E-03      14   26    1        -0.5076823707E+00      0.3671650062E+01
          0                 2           1            44   31     1      -0.6666604920E-04      45   32    1        -0.1425306692E-01      0.9297727041E-01
          0                 3           1            42   32     2      -0.3762296341E-04      47   30    1        -0.2925709955E-02      0.2520753113E-01
          0                 4           1            43   30     1      -0.1516383461E-04      44   33    1        -0.1408587970E-02      0.1415325545E-01
          0                 5           1            42   32     2      -0.1391873830E-04      47   30    1        -0.1030259847E-02      0.1031263999E-01
          0                 6           1            43   30     1      -0.7960492806E-05      44   33    1        -0.7273182357E-03      0.8406327494E-02

    ------------------------------------------------
       NWT REQUIRED            6 OUTER ITERATIONS 
       AND A TOTAL OF          6 INNER ITERATIONS.
    ------------------------------------------------

 OUTPUT CONTROL FOR STRESS PERIOD    1   TIME STEP  976
    SAVE HEAD FOR ALL LAYERS
 SOLVING FOR ZETA FOR LAYER     1 ZONE     2

     591 UPPER PART EQS.       606 LOWER PART EQS.    BAND WIDTH + 1 =   37
 STRESS PERIOD=  1 TIMESTEP=976 LAYER=  1 ZONE=  2 ACTIVE CELLS= 1197 NUMBER OF EQUATIONS=    1197
 SOLVING FOR ZETA FOR LAYER     2 ZONE     2

     621 UPPER PART EQS.       632 LOWER PART EQS.    BAND WIDTH + 1 =   34
 STRESS PERIOD=  1 TIMESTEP=976 LAYER=  2 ZONE=  2 ACTIVE CELLS= 1253 NUMBER OF EQUATIONS=    1253
 UBUDSV SAVING "      ZETASRF  1" ON UNIT 55 AT TIME STEP976, STRESS PERIOD    1

 HEAD WILL BE SAVED ON UNIT   51 AT END OF TIME STEP  976, STRESS PERIOD    1
 
 SOLVING FOR HEAD 
                                                   Max.-Head-Change                         Max.-Flux-Residual
  Residual-Control   Outer-Iter.   Inner-Iter.     Column Row Layer    Maximum-Head-Change  Column Row Layer    Maximum-Flux-Residual          L2-NORM 
          0                 1           1            48   33     1       0.7162324016E-03      14   36    1         0.4949574816E+00      0.3418212019E+01
          0                 2           1            44   31     1       0.8179856178E-04      45   32    1         0.1487328156E-01      0.1005960382E+00
          0                 3           1            42   32     2       0.4763675075E-04      47   30    1         0.3592936946E-02      0.3186307038E-01
          0                 4           1            43   30     1       0.2017843026E-04      44   33    1         0.1783303630E-02      0.1956907896E-01
          0                 5           1            42   32     2       0.2346733883E-04      47   30    1         0.1270031685E-02      0.1573220858E-01
          0                 6           1            44   33     1       0.1189818725E-04      44   33    1         0.1068290703E-02      0.1370668013E-01
          0                 7           1            41   31     2       0.1705342998E-04      47   30    1         0.7644153856E-03      0.1197959894E-01
          0                 8           1            38   32     2       0.8903521331E-05      44   33    1         0.8189957011E-03      0.1086552536E-01

    ------------------------------------------------
       NWT REQUIRED            8 OUTER ITERATIONS 
       AND A TOTAL OF          8 INNER ITERATIONS.
    ------------------------------------------------

 OUTPUT CONTROL FOR STRESS PERIOD    1   TIME STEP  977
    SAVE HEAD FOR ALL LAYERS
 SOLVING FOR ZETA FOR LAYER     1 ZONE     2

     608 UPPER PART EQS.       622 LOWER PART EQS.    BAND WIDTH + 1 =   34
 STRESS PERIOD=  1 TIMESTEP=977 LAYER=  1 ZONE=  2 ACTIVE CELLS= 1230 NUMBER OF EQUATIONS=    1230
 SOLVING FOR ZETA FOR LAYER     2 ZONE     2

     621 UPPER PART EQS.       632 LOWER PART EQS.    BAND WIDTH + 1 =   34
 STRESS PERIOD=  1 TIMESTEP=977 LAYER=  2 ZONE=  2 ACTIVE CELLS= 1253 NUMBER OF EQUATIONS=    1253
 UBUDSV SAVING "      ZETASRF  1" ON UNIT 55 AT TIME STEP977, STRESS PERIOD    1

 HEAD WILL BE SAVED ON UNIT   51 AT END OF TIME STEP  977, STRESS PERIOD    1
 
 SOLVING FOR HEAD 
                                                   Max.-Head-Change                         Max.-Flux-Residual
  Residual-Control   Outer-Iter.   Inner-Iter.     Column Row Layer    Maximum-Head-Change  Column Row Layer    Maximum-Flux-Residual          L2-NORM 
          0                 1           1            48   34     1      -0.7598886162E-03      26   48    1        -0.5079894555E+00      0.3574338443E+01
          0                 2           1            44   31     1      -0.7865060955E-04      45   34    1        -0.1489785838E-01      0.1055450714E+00
          0                 3           1            43   31     2      -0.4303684637E-04      47   30    1        -0.3477019560E-02      0.2985958607E-01
          0                 4           1            44   31     1      -0.1983180930E-04      44   33    1        -0.1632446677E-02      0.1847074443E-01
          0                 5           1            42   32     2      -0.1978488335E-04      47   30    1        -0.1276856082E-02      0.1483980862E-01
          0                 6           1            44   31     1      -0.1213997875E-04      44   33    1        -0.9374920364E-03      0.1295508879E-01
          0                 7           1            42   32     2      -0.1395438887E-04      47   30    1        -0.7897167673E-03      0.1137711898E-01
          0                 8           1            38   32     2      -0.9242731535E-05      44   33    1        -0.6866099605E-03      0.1031992928E-01

    ------------------------------------------------
       NWT REQUIRED            8 OUTER ITERATIONS 
       AND A TOTAL OF          8 INNER ITERATIONS.
    ------------------------------------------------

 OUTPUT CONTROL FOR STRESS PERIOD    1   TIME STEP  978
    SAVE HEAD FOR ALL LAYERS
 SOLVING FOR ZETA FOR LAYER     1 ZONE     2

     603 UPPER PART EQS.       610 LOWER PART EQS.    BAND WIDTH + 1 =   31
 STRESS PERIOD=  1 TIMESTEP=978 LAYER=  1 ZONE=  2 ACTIVE CELLS= 1213 NUMBER OF EQUATIONS=    1213
 SOLVING FOR ZETA FOR LAYER     2 ZONE     2

     621 UPPER PART EQS.       632 LOWER PART EQS.    BAND WIDTH + 1 =   34
 STRESS PERIOD=  1 TIMESTEP=978 LAYER=  2 ZONE=  2 ACTIVE CELLS= 1253 NUMBER OF EQUATIONS=    1253
 UBUDSV SAVING "      ZETASRF  1" ON UNIT 55 AT TIME STEP978, STRESS PERIOD    1

 HEAD WILL BE SAVED ON UNIT   51 AT END OF TIME STEP  978, STRESS PERIOD    1
 
 SOLVING FOR HEAD 
                                                   Max.-Head-Change                         Max.-Flux-Residual
  Residual-Control   Outer-Iter.   Inner-Iter.     Column Row Layer    Maximum-Head-Change  Column Row Layer    Maximum-Flux-Residual          L2-NORM 
          0                 1           1            48   34     1       0.7616687369E-03      36   14    1        -0.5067240520E+00      0.3626195849E+01
          0                 2           1            44   31     1       0.7891822087E-04      45   34    1         0.1495385716E-01      0.1024709667E+00
          0                 3           1            43   31     2       0.4357675031E-04      47   30    1         0.3451022522E-02      0.2803408779E-01
          0                 4           1            44   31     1       0.1766581012E-04      44   33    1         0.1562483301E-02      0.1584971592E-01
          0                 5           1            42   32     2       0.1671098438E-04      47   30    1         0.1151715686E-02      0.1178894947E-01
          0                 6           1            44   33     1       0.9768434750E-05      44   33    1         0.8469790318E-03      0.9701675696E-02

    ------------------------------------------------
       NWT REQUIRED            6 OUTER ITERATIONS 
       AND A TOTAL OF          6 INNER ITERATIONS.
    ------------------------------------------------

 OUTPUT CONTROL FOR STRESS PERIOD    1   TIME STEP  979
    SAVE HEAD FOR ALL LAYERS
 SOLVING FOR ZETA FOR LAYER     1 ZONE     2

     610 UPPER PART EQS.       613 LOWER PART EQS.    BAND WIDTH + 1 =   26
 STRESS PERIOD=  1 TIMESTEP=979 LAYER=  1 ZONE=  2 ACTIVE CELLS= 1223 NUMBER OF EQUATIONS=    1223
 SOLVING FOR ZETA FOR LAYER     2 ZONE     2

     621 UPPER PART EQS.       632 LOWER PART EQS.    BAND WIDTH + 1 =   34
 STRESS PERIOD=  1 TIMESTEP=979 LAYER=  2 ZONE=  2 ACTIVE CELLS= 1253 NUMBER OF EQUATIONS=    1253
 UBUDSV SAVING "      ZETASRF  1" ON UNIT 55 AT TIME STEP979, STRESS PERIOD    1

 HEAD WILL BE SAVED ON UNIT   51 AT END OF TIME STEP  979, STRESS PERIOD    1
 
 SOLVING FOR HEAD 
                                                   Max.-Head-Change                         Max.-Flux-Residual
  Residual-Control   Outer-Iter.   Inner-Iter.     Column Row Layer    Maximum-Head-Change  Column Row Layer    Maximum-Flux-Residual          L2-NORM 
          0                 1           1            48   33     1      -0.7126840584E-03      49   36    1         0.5084693944E+00      0.3624769234E+01
          0                 2           1            44   31     1      -0.7621940642E-04      45   32    1        -0.1464702709E-01      0.9862673309E-01
          0                 3           1            43   31     2      -0.4186923791E-04      47   30    1        -0.3291029729E-02      0.2739682453E-01
          0                 4           1            44   31     1      -0.1579987295E-04      44   33    1        -0.1475465509E-02      0.1495498320E-01
          0                 5           1            16   33     1      -0.1499041303E-04      47   30    1        -0.1121258020E-02      0.1045311098E-01
          0                 6           1            44   31     1      -0.7899697458E-05      44   33    1        -0.7215872918E-03      0.8120800270E-02

    ------------------------------------------------
       NWT REQUIRED            6 OUTER ITERATIONS 
       AND A TOTAL OF          6 INNER ITERATIONS.
    ------------------------------------------------

 OUTPUT CONTROL FOR STRESS PERIOD    1   TIME STEP  980
    SAVE HEAD FOR ALL LAYERS
 SOLVING FOR ZETA FOR LAYER     1 ZONE     2

     604 UPPER PART EQS.       614 LOWER PART EQS.    BAND WIDTH + 1 =   35
 STRESS PERIOD=  1 TIMESTEP=980 LAYER=  1 ZONE=  2 ACTIVE CELLS= 1218 NUMBER OF EQUATIONS=    1218
 SOLVING FOR ZETA FOR LAYER     2 ZONE     2

     621 UPPER PART EQS.       632 LOWER PART EQS.    BAND WIDTH + 1 =   34
 STRESS PERIOD=  1 TIMESTEP=980 LAYER=  2 ZONE=  2 ACTIVE CELLS= 1253 NUMBER OF EQUATIONS=    1253
 UBUDSV SAVING "      ZETASRF  1" ON UNIT 55 AT TIME STEP980, STRESS PERIOD    1

 HEAD WILL BE SAVED ON UNIT   51 AT END OF TIME STEP  980, STRESS PERIOD    1
 
 SOLVING FOR HEAD 
                                                   Max.-Head-Change                         Max.-Flux-Residual
  Residual-Control   Outer-Iter.   Inner-Iter.     Column Row Layer    Maximum-Head-Change  Column Row Layer    Maximum-Flux-Residual          L2-NORM 
          0                 1           1            48   32     1       0.6927716787E-03      14   36    1         0.4943238926E+00      0.3408133609E+01
          0                 2           1            44   31     1       0.6526396678E-04      45   32    1         0.1418239744E-01      0.8461367693E-01
          0                 3           1            42   32     2       0.3445594983E-04      47   30    1         0.2864849924E-02      0.2325281405E-01
          0                 4           1            19   30     1       0.1402979903E-04      44   33    1         0.1300953783E-02      0.1314891202E-01
          0                 5           1            20   28     2       0.1424404033E-04      16   33    1         0.8994577674E-03      0.1001705198E-01
          0                 6           1            19   30     1       0.8213308986E-05      44   33    1         0.6896021041E-03      0.8435936129E-02

    ------------------------------------------------
       NWT REQUIRED            6 OUTER ITERATIONS 
       AND A TOTAL OF          6 INNER ITERATIONS.
    ------------------------------------------------

 OUTPUT CONTROL FOR STRESS PERIOD    1   TIME STEP  981
    SAVE HEAD FOR ALL LAYERS
 SOLVING FOR ZETA FOR LAYER     1 ZONE     2

     622 UPPER PART EQS.       607 LOWER PART EQS.    BAND WIDTH + 1 =   32
 STRESS PERIOD=  1 TIMESTEP=981 LAYER=  1 ZONE=  2 ACTIVE CELLS= 1229 NUMBER OF EQUATIONS=    1229
 SOLVING FOR ZETA FOR LAYER     2 ZONE     2

     621 UPPER PART EQS.       632 LOWER PART EQS.    BAND WIDTH + 1 =   34
 STRESS PERIOD=  1 TIMESTEP=981 LAYER=  2 ZONE=  2 ACTIVE CELLS= 1253 NUMBER OF EQUATIONS=    1253
 UBUDSV SAVING "      ZETASRF  1" ON UNIT 55 AT TIME STEP981, STRESS PERIOD    1

 HEAD WILL BE SAVED ON UNIT   51 AT END OF TIME STEP  981, STRESS PERIOD    1
 
 SOLVING FOR HEAD 
                                                   Max.-Head-Change                         Max.-Flux-Residual
  Residual-Control   Outer-Iter.   Inner-Iter.     Column Row Layer    Maximum-Head-Change  Column Row Layer    Maximum-Flux-Residual          L2-NORM 
          0                 1           1            48   32     1      -0.6824571280E-03      26   14    1        -0.5072808369E+00      0.3710154039E+01
          0                 2           1            44   33     1      -0.5363621284E-04      45   32    1        -0.1357684845E-01      0.8459695906E-01
          0                 3           1            43   31     2      -0.2381114915E-04      47   30    1        -0.2304517253E-02      0.1921526649E-01
          0                 4           1            44   33     1      -0.9707812385E-05      44   33    1        -0.9906420880E-03      0.1003005116E-01

    ------------------------------------------------
       NWT REQUIRED            4 OUTER ITERATIONS 
       AND A TOTAL OF          4 INNER ITERATIONS.
    ------------------------------------------------

 OUTPUT CONTROL FOR STRESS PERIOD    1   TIME STEP  982
    SAVE HEAD FOR ALL LAYERS
 SOLVING FOR ZETA FOR LAYER     1 ZONE     2

     608 UPPER PART EQS.       602 LOWER PART EQS.    BAND WIDTH + 1 =   26
 STRESS PERIOD=  1 TIMESTEP=982 LAYER=  1 ZONE=  2 ACTIVE CELLS= 1210 NUMBER OF EQUATIONS=    1210
 SOLVING FOR ZETA FOR LAYER     2 ZONE     2

     621 UPPER PART EQS.       632 LOWER PART EQS.    BAND WIDTH + 1 =   34
 STRESS PERIOD=  1 TIMESTEP=982 LAYER=  2 ZONE=  2 ACTIVE CELLS= 1253 NUMBER OF EQUATIONS=    1253
 UBUDSV SAVING "      ZETASRF  1" ON UNIT 55 AT TIME STEP982, STRESS PERIOD    1

 HEAD WILL BE SAVED ON UNIT   51 AT END OF TIME STEP  982, STRESS PERIOD    1
 
 SOLVING FOR HEAD 
                                                   Max.-Head-Change                         Max.-Flux-Residual
  Residual-Control   Outer-Iter.   Inner-Iter.     Column Row Layer    Maximum-Head-Change  Column Row Layer    Maximum-Flux-Residual          L2-NORM 
          0                 1           1            48   33     1       0.6974755524E-03      26   48    1         0.4950923794E+00      0.3329942063E+01
          0                 2           1            44   31     1       0.6796914773E-04      45   32    1         0.1420068926E-01      0.8987933029E-01
          0                 3           1            42   32     2       0.3575465941E-04      47   30    1         0.3045989605E-02      0.2509120698E-01
          0                 4           1            44   33     1       0.1669826482E-04      44   33    1         0.1447398337E-02      0.1525926845E-01
          0                 5           1            42   32     2       0.1718631727E-04      47   30    1         0.1099923572E-02      0.1235371151E-01
          0                 6           1            44   33     1       0.1064974457E-04      44   33    1         0.8600511540E-03      0.1085135138E-01
          0                 7           1            42   32     2       0.1219566098E-04      47   30    1         0.7184638449E-03      0.9575220446E-02
          0                 8           1            38   32     2       0.8077604835E-05      44   33    1         0.6495394427E-03      0.8689012667E-02

    ------------------------------------------------
       NWT REQUIRED            8 OUTER ITERATIONS 
       AND A TOTAL OF          8 INNER ITERATIONS.
    ------------------------------------------------

 OUTPUT CONTROL FOR STRESS PERIOD    1   TIME STEP  983
    SAVE HEAD FOR ALL LAYERS
 SOLVING FOR ZETA FOR LAYER     1 ZONE     2

     622 UPPER PART EQS.       617 LOWER PART EQS.    BAND WIDTH + 1 =   26
 STRESS PERIOD=  1 TIMESTEP=983 LAYER=  1 ZONE=  2 ACTIVE CELLS= 1239 NUMBER OF EQUATIONS=    1239
 SOLVING FOR ZETA FOR LAYER     2 ZONE     2

     621 UPPER PART EQS.       632 LOWER PART EQS.    BAND WIDTH + 1 =   34
 STRESS PERIOD=  1 TIMESTEP=983 LAYER=  2 ZONE=  2 ACTIVE CELLS= 1253 NUMBER OF EQUATIONS=    1253
 UBUDSV SAVING "      ZETASRF  1" ON UNIT 55 AT TIME STEP983, STRESS PERIOD    1

 HEAD WILL BE SAVED ON UNIT   51 AT END OF TIME STEP  983, STRESS PERIOD    1
 
 SOLVING FOR HEAD 
                                                   Max.-Head-Change                         Max.-Flux-Residual
  Residual-Control   Outer-Iter.   Inner-Iter.     Column Row Layer    Maximum-Head-Change  Column Row Layer    Maximum-Flux-Residual          L2-NORM 
          0                 1           1            48   35     1      -0.8591000102E-03      48   26    1        -0.5060777064E+00      0.3585574821E+01
          0                 2           1            44   31     1      -0.9186535333E-04      45   36    1        -0.1732275634E-01      0.1210439167E+00
          0                 3           1            42   32     2      -0.5634440143E-04      47   30    1        -0.3975578467E-02      0.3680482682E-01
          0                 4           1            44   31     1      -0.2425709551E-04      44   29    1        -0.2053942446E-02      0.2257552924E-01
          0                 5           1            42   32     2      -0.2723662045E-04      47   30    1        -0.1489324379E-02      0.1779800898E-01
          0                 6           1            44   31     1      -0.1422538060E-04      44   29    1        -0.1211310312E-02      0.1523296310E-01
          0                 7           1            41   31     2      -0.1995523752E-04      47   30    1        -0.8634033398E-03      0.1320171464E-01
          0                 8           1            38   32     2      -0.1012490480E-04      44   29    1        -0.8811821706E-03      0.1195723522E-01
          0                 9           1            34   32     2      -0.1573330780E-04      42   30    2        -0.6007159208E-03      0.1046675112E-01
          0                10           1            38   32     2      -0.7890506078E-05      44   29    1        -0.6918018547E-03      0.9615264839E-02

    ------------------------------------------------
       NWT REQUIRED           10 OUTER ITERATIONS 
       AND A TOTAL OF         10 INNER ITERATIONS.
    ------------------------------------------------

 OUTPUT CONTROL FOR STRESS PERIOD    1   TIME STEP  984
    SAVE HEAD FOR ALL LAYERS
 SOLVING FOR ZETA FOR LAYER     1 ZONE     2

     605 UPPER PART EQS.       602 LOWER PART EQS.    BAND WIDTH + 1 =   26
 STRESS PERIOD=  1 TIMESTEP=984 LAYER=  1 ZONE=  2 ACTIVE CELLS= 1207 NUMBER OF EQUATIONS=    1207
 SOLVING FOR ZETA FOR LAYER     2 ZONE     2

     617 UPPER PART EQS.       632 LOWER PART EQS.    BAND WIDTH + 1 =   34
 STRESS PERIOD=  1 TIMESTEP=984 LAYER=  2 ZONE=  2 ACTIVE CELLS= 1249 NUMBER OF EQUATIONS=    1249
 UBUDSV SAVING "      ZETASRF  1" ON UNIT 55 AT TIME STEP984, STRESS PERIOD    1

 HEAD WILL BE SAVED ON UNIT   51 AT END OF TIME STEP  984, STRESS PERIOD    1
 
 SOLVING FOR HEAD 
                                                   Max.-Head-Change                         Max.-Flux-Residual
  Residual-Control   Outer-Iter.   Inner-Iter.     Column Row Layer    Maximum-Head-Change  Column Row Layer    Maximum-Flux-Residual          L2-NORM 
          0                 1           1            48   35     1       0.8498852990E-03      14   26    1         0.4938337114E+00      0.3778256230E+01
          0                 2           1            44   31     1       0.9071563269E-04      45   36    1         0.1702222813E-01      0.1205493942E+00
          0                 3           1            43   31     2       0.5562048130E-04      47   30    1         0.3946795725E-02      0.3639243392E-01
          0                 4           1            44   31     1       0.2394986922E-04      44   29    1         0.1997989233E-02      0.2270108185E-01
          0                 5           1            42   32     2       0.2666458574E-04      47   34    1         0.1569481466E-02      0.1823636315E-01
          0                 6           1            44   31     1       0.1421086908E-04      44   29    1         0.1176038420E-02      0.1578569481E-01
          0                 7           1            41   31     2       0.1926738347E-04      47   34    1         0.9407031720E-03      0.1379750989E-01
          0                 8           1            38   32     2       0.1069560941E-04      44   29    1         0.8693631942E-03      0.1249240929E-01
          0                 9           1            34   32     2       0.1560332495E-04      47   34    1         0.6613764206E-03      0.1101877334E-01
          0                10           1            38   32     2       0.8475736292E-05      44   29    1         0.6897100346E-03      0.1007309641E-01

    ------------------------------------------------
       NWT REQUIRED           10 OUTER ITERATIONS 
       AND A TOTAL OF         10 INNER ITERATIONS.
    ------------------------------------------------

 OUTPUT CONTROL FOR STRESS PERIOD    1   TIME STEP  985
    SAVE HEAD FOR ALL LAYERS
 SOLVING FOR ZETA FOR LAYER     1 ZONE     2

     616 UPPER PART EQS.       615 LOWER PART EQS.    BAND WIDTH + 1 =   24
 STRESS PERIOD=  1 TIMESTEP=985 LAYER=  1 ZONE=  2 ACTIVE CELLS= 1231 NUMBER OF EQUATIONS=    1231
 SOLVING FOR ZETA FOR LAYER     2 ZONE     2

     621 UPPER PART EQS.       632 LOWER PART EQS.    BAND WIDTH + 1 =   34
 STRESS PERIOD=  1 TIMESTEP=985 LAYER=  2 ZONE=  2 ACTIVE CELLS= 1253 NUMBER OF EQUATIONS=    1253
 UBUDSV SAVING "      ZETASRF  1" ON UNIT 55 AT TIME STEP985, STRESS PERIOD    1

 HEAD WILL BE SAVED ON UNIT   51 AT END OF TIME STEP  985, STRESS PERIOD    1
 
 SOLVING FOR HEAD 
                                                   Max.-Head-Change                         Max.-Flux-Residual
  Residual-Control   Outer-Iter.   Inner-Iter.     Column Row Layer    Maximum-Head-Change  Column Row Layer    Maximum-Flux-Residual          L2-NORM 
          0                 1           1            48   33     1      -0.6949511076E-03      26   14    1        -0.5066479571E+00      0.3099774831E+01
          0                 2           1            44   31     1      -0.6491141206E-04      45   32    1        -0.1405176449E-01      0.9077398312E-01
          0                 3           1            43   31     2      -0.2936972754E-04      47   30    1        -0.2923571747E-02      0.2315536444E-01
          0                 4           1            44   33     1      -0.1387214226E-04      44   33    1        -0.1256162446E-02      0.1295887433E-01
          0                 5           1            16   33     1      -0.1201244959E-04      47   30    1        -0.9269884207E-03      0.1022091836E-01
          0                 6           1            19   30     1      -0.8561568346E-05      44   33    1        -0.6572382683E-03      0.8876158459E-02

    ------------------------------------------------
       NWT REQUIRED            6 OUTER ITERATIONS 
       AND A TOTAL OF          6 INNER ITERATIONS.
    ------------------------------------------------

 OUTPUT CONTROL FOR STRESS PERIOD    1   TIME STEP  986
    SAVE HEAD FOR ALL LAYERS
 SOLVING FOR ZETA FOR LAYER     1 ZONE     2

     601 UPPER PART EQS.       612 LOWER PART EQS.    BAND WIDTH + 1 =   36
 STRESS PERIOD=  1 TIMESTEP=986 LAYER=  1 ZONE=  2 ACTIVE CELLS= 1213 NUMBER OF EQUATIONS=    1213
 SOLVING FOR ZETA FOR LAYER     2 ZONE     2

     621 UPPER PART EQS.       632 LOWER PART EQS.    BAND WIDTH + 1 =   34
 STRESS PERIOD=  1 TIMESTEP=986 LAYER=  2 ZONE=  2 ACTIVE CELLS= 1253 NUMBER OF EQUATIONS=    1253
 UBUDSV SAVING "      ZETASRF  1" ON UNIT 55 AT TIME STEP986, STRESS PERIOD    1

 HEAD WILL BE SAVED ON UNIT   51 AT END OF TIME STEP  986, STRESS PERIOD    1
 
 SOLVING FOR HEAD 
                                                   Max.-Head-Change                         Max.-Flux-Residual
  Residual-Control   Outer-Iter.   Inner-Iter.     Column Row Layer    Maximum-Head-Change  Column Row Layer    Maximum-Flux-Residual          L2-NORM 
          0                 1           1            48   32     1       0.6827699358E-03      26   14    1         0.4943322308E+00      0.3660509815E+01
          0                 2           1            44   33     1       0.5310064721E-04      45   32    1         0.1357483412E-01      0.7833786378E-01
          0                 3           1            43   31     2       0.2266566689E-04      47   30    1         0.2269071146E-02      0.1728800732E-01
          0                 4           1            19   30     1       0.9016805006E-05      44   33    1         0.9291615501E-03      0.8232380564E-02

    ------------------------------------------------
       NWT REQUIRED            4 OUTER ITERATIONS 
       AND A TOTAL OF          4 INNER ITERATIONS.
    ------------------------------------------------

 OUTPUT CONTROL FOR STRESS PERIOD    1   TIME STEP  987
    SAVE HEAD FOR ALL LAYERS
 SOLVING FOR ZETA FOR LAYER     1 ZONE     2

     608 UPPER PART EQS.       616 LOWER PART EQS.    BAND WIDTH + 1 =   28
 STRESS PERIOD=  1 TIMESTEP=987 LAYER=  1 ZONE=  2 ACTIVE CELLS= 1224 NUMBER OF EQUATIONS=    1224
 SOLVING FOR ZETA FOR LAYER     2 ZONE     2

     621 UPPER PART EQS.       632 LOWER PART EQS.    BAND WIDTH + 1 =   34
 STRESS PERIOD=  1 TIMESTEP=987 LAYER=  2 ZONE=  2 ACTIVE CELLS= 1253 NUMBER OF EQUATIONS=    1253
 UBUDSV SAVING "      ZETASRF  1" ON UNIT 55 AT TIME STEP987, STRESS PERIOD    1

 HEAD WILL BE SAVED ON UNIT   51 AT END OF TIME STEP  987, STRESS PERIOD    1
 
 SOLVING FOR HEAD 
                                                   Max.-Head-Change                         Max.-Flux-Residual
  Residual-Control   Outer-Iter.   Inner-Iter.     Column Row Layer    Maximum-Head-Change  Column Row Layer    Maximum-Flux-Residual          L2-NORM 
          0                 1           1            48   32     1      -0.6893613785E-03      14   26    1        -0.5058816275E+00      0.3788943017E+01
          0                 2           1            44   31     1      -0.6476734501E-04      45   32    1        -0.1411707789E-01      0.8617133875E-01
          0                 3           1            42   32     2      -0.3700868347E-04      47   30    1        -0.2796857471E-02      0.2340528557E-01
          0                 4           1            43   30     1      -0.1435131762E-04      44   33    1        -0.1328752671E-02      0.1360721102E-01
          0                 5           1            42   32     2      -0.1380200265E-04      47   30    1        -0.9881947111E-03      0.1015846583E-01
          0                 6           1            44   33     1      -0.7923772390E-05      44   33    1        -0.7252610794E-03      0.8407477398E-02

    ------------------------------------------------
       NWT REQUIRED            6 OUTER ITERATIONS 
       AND A TOTAL OF          6 INNER ITERATIONS.
    ------------------------------------------------

 OUTPUT CONTROL FOR STRESS PERIOD    1   TIME STEP  988
    SAVE HEAD FOR ALL LAYERS
 SOLVING FOR ZETA FOR LAYER     1 ZONE     2

     593 UPPER PART EQS.       608 LOWER PART EQS.    BAND WIDTH + 1 =   36
 STRESS PERIOD=  1 TIMESTEP=988 LAYER=  1 ZONE=  2 ACTIVE CELLS= 1201 NUMBER OF EQUATIONS=    1201
 SOLVING FOR ZETA FOR LAYER     2 ZONE     2

     621 UPPER PART EQS.       632 LOWER PART EQS.    BAND WIDTH + 1 =   34
 STRESS PERIOD=  1 TIMESTEP=988 LAYER=  2 ZONE=  2 ACTIVE CELLS= 1253 NUMBER OF EQUATIONS=    1253
 UBUDSV SAVING "      ZETASRF  1" ON UNIT 55 AT TIME STEP988, STRESS PERIOD    1

 HEAD WILL BE SAVED ON UNIT   51 AT END OF TIME STEP  988, STRESS PERIOD    1
 
 SOLVING FOR HEAD 
                                                   Max.-Head-Change                         Max.-Flux-Residual
  Residual-Control   Outer-Iter.   Inner-Iter.     Column Row Layer    Maximum-Head-Change  Column Row Layer    Maximum-Flux-Residual          L2-NORM 
          0                 1           1            48   33     1       0.7123846753E-03      14   36    1         0.4929184255E+00      0.3432731861E+01
          0                 2           1            44   31     1       0.8060025561E-04      45   32    1         0.1479188666E-01      0.1005125950E+00
          0                 3           1            42   32     2       0.4775082716E-04      47   30    1         0.3527050367E-02      0.3134359888E-01
          0                 4           1            43   30     1       0.1978084422E-04      44   33    1         0.1752351277E-02      0.1919234014E-01
          0                 5           1            42   32     2       0.2341695505E-04      47   30    1         0.1256171021E-02      0.1545958167E-01
          0                 6           1            44   33     1       0.1160488864E-04      44   33    1         0.1061409896E-02      0.1346142073E-01
          0                 7           1            41   31     2       0.1718465759E-04      47   30    1         0.7531852792E-03      0.1175574139E-01
          0                 8           1            38   32     2       0.8632593830E-05      44   33    1         0.8117809389E-03      0.1066416825E-01

    ------------------------------------------------
       NWT REQUIRED            8 OUTER ITERATIONS 
       AND A TOTAL OF          8 INNER ITERATIONS.
    ------------------------------------------------

 OUTPUT CONTROL FOR STRESS PERIOD    1   TIME STEP  989
    SAVE HEAD FOR ALL LAYERS
 SOLVING FOR ZETA FOR LAYER     1 ZONE     2

     613 UPPER PART EQS.       621 LOWER PART EQS.    BAND WIDTH + 1 =   31
 STRESS PERIOD=  1 TIMESTEP=989 LAYER=  1 ZONE=  2 ACTIVE CELLS= 1234 NUMBER OF EQUATIONS=    1234
 SOLVING FOR ZETA FOR LAYER     2 ZONE     2

     623 UPPER PART EQS.       634 LOWER PART EQS.    BAND WIDTH + 1 =   35
 STRESS PERIOD=  1 TIMESTEP=989 LAYER=  2 ZONE=  2 ACTIVE CELLS= 1257 NUMBER OF EQUATIONS=    1257
 UBUDSV SAVING "      ZETASRF  1" ON UNIT 55 AT TIME STEP989, STRESS PERIOD    1

 HEAD WILL BE SAVED ON UNIT   51 AT END OF TIME STEP  989, STRESS PERIOD    1
 
 SOLVING FOR HEAD 
                                                   Max.-Head-Change                         Max.-Flux-Residual
  Residual-Control   Outer-Iter.   Inner-Iter.     Column Row Layer    Maximum-Head-Change  Column Row Layer    Maximum-Flux-Residual          L2-NORM 
          0                 1           1            35   14     1      -0.7692813215E-03      26   48    1        -0.5061138826E+00      0.3625147654E+01
          0                 2           1            44   31     1      -0.7963988862E-04      45   34    1        -0.1486930830E-01      0.1141030619E+00
          0                 3           1            42   32     2      -0.4233217807E-04      47   30    1        -0.3593209354E-02      0.3250686417E-01
          0                 4           1            44   31     1      -0.2107263133E-04      44   33    1        -0.1701600760E-02      0.2032240226E-01
          0                 5           1            42   32     2      -0.2175629103E-04      47   30    1        -0.1320664392E-02      0.1673629801E-01
          0                 6           1            38   32     2      -0.1358956482E-04      44   33    1        -0.1017506034E-02      0.1482742539E-01
          0                 7           1            42   32     2      -0.1591666659E-04      47   30    1        -0.8730130520E-03      0.1309864609E-01
          0                 8           1            38   32     2      -0.1073068376E-04      44   33    1        -0.7750649331E-03      0.1191263629E-01
          0                 9           1            34   32     2      -0.1330225898E-04      47   30    1        -0.6537786301E-03      0.1057599887E-01
          0                10           1            38   32     2      -0.8576950509E-05      44   33    1        -0.6176232581E-03      0.9666232105E-02

    ------------------------------------------------
       NWT REQUIRED           10 OUTER ITERATIONS 
       AND A TOTAL OF         10 INNER ITERATIONS.
    ------------------------------------------------

 OUTPUT CONTROL FOR STRESS PERIOD    1   TIME STEP  990
    SAVE HEAD FOR ALL LAYERS
 SOLVING FOR ZETA FOR LAYER     1 ZONE     2

     604 UPPER PART EQS.       610 LOWER PART EQS.    BAND WIDTH + 1 =   30
 STRESS PERIOD=  1 TIMESTEP=990 LAYER=  1 ZONE=  2 ACTIVE CELLS= 1214 NUMBER OF EQUATIONS=    1214
 SOLVING FOR ZETA FOR LAYER     2 ZONE     2

     623 UPPER PART EQS.       636 LOWER PART EQS.    BAND WIDTH + 1 =   36
 STRESS PERIOD=  1 TIMESTEP=990 LAYER=  2 ZONE=  2 ACTIVE CELLS= 1259 NUMBER OF EQUATIONS=    1259
 UBUDSV SAVING "      ZETASRF  1" ON UNIT 55 AT TIME STEP990, STRESS PERIOD    1

 HEAD WILL BE SAVED ON UNIT   51 AT END OF TIME STEP  990, STRESS PERIOD    1
 
 SOLVING FOR HEAD 
                                                   Max.-Head-Change                         Max.-Flux-Residual
  Residual-Control   Outer-Iter.   Inner-Iter.     Column Row Layer    Maximum-Head-Change  Column Row Layer    Maximum-Flux-Residual          L2-NORM 
          0                 1           1            48   34     1       0.7591912967E-03      26   48    1         0.4937324188E+00      0.3569394930E+01
          0                 2           1            44   31     1       0.8024548977E-04      45   34    1         0.1492771654E-01      0.1107372386E+00
          0                 3           1            42   32     2       0.4289038592E-04      47   30    1         0.3630110046E-02      0.3124854915E-01
          0                 4           1            44   33     1       0.2065405143E-04      44   33    1         0.1698969916E-02      0.1888392779E-01
          0                 5           1            42   32     2       0.2105365174E-04      47   34    1         0.1290291654E-02      0.1519748827E-01
          0                 6           1            44   33     1       0.1303933432E-04      44   33    1         0.1022771833E-02      0.1324572702E-01
          0                 7           1            41   31     2       0.1517095430E-04      47   30    1         0.8013900174E-03      0.1164177553E-01
          0                 8           1            38   32     2       0.9874511560E-05      44   33    1         0.7751810512E-03      0.1053299909E-01

    ------------------------------------------------
       NWT REQUIRED            8 OUTER ITERATIONS 
       AND A TOTAL OF          8 INNER ITERATIONS.
    ------------------------------------------------

 OUTPUT CONTROL FOR STRESS PERIOD    1   TIME STEP  991
    SAVE HEAD FOR ALL LAYERS
 SOLVING FOR ZETA FOR LAYER     1 ZONE     2

     616 UPPER PART EQS.       603 LOWER PART EQS.    BAND WIDTH + 1 =   32
 STRESS PERIOD=  1 TIMESTEP=991 LAYER=  1 ZONE=  2 ACTIVE CELLS= 1219 NUMBER OF EQUATIONS=    1219
 SOLVING FOR ZETA FOR LAYER     2 ZONE     2

     625 UPPER PART EQS.       636 LOWER PART EQS.    BAND WIDTH + 1 =   36
 STRESS PERIOD=  1 TIMESTEP=991 LAYER=  2 ZONE=  2 ACTIVE CELLS= 1261 NUMBER OF EQUATIONS=    1261
 UBUDSV SAVING "      ZETASRF  1" ON UNIT 55 AT TIME STEP991, STRESS PERIOD    1

 HEAD WILL BE SAVED ON UNIT   51 AT END OF TIME STEP  991, STRESS PERIOD    1
 
 SOLVING FOR HEAD 
                                                   Max.-Head-Change                         Max.-Flux-Residual
  Residual-Control   Outer-Iter.   Inner-Iter.     Column Row Layer    Maximum-Head-Change  Column Row Layer    Maximum-Flux-Residual          L2-NORM 
          0                 1           1            48   33     1      -0.7102139351E-03      49   36    1         0.5072436580E+00      0.3612435106E+01
          0                 2           1            44   31     1      -0.7642250081E-04      45   32    1        -0.1460367130E-01      0.9849360252E-01
          0                 3           1            43   31     2      -0.4157807642E-04      47   30    1        -0.3316006398E-02      0.2749940671E-01
          0                 4           1            43   30     1      -0.1623869669E-04      44   33    1        -0.1501984680E-02      0.1518780754E-01
          0                 5           1            16   33     1      -0.1540322727E-04      47   30    1        -0.1125276526E-02      0.1079389295E-01
          0                 6           1            44   31     1      -0.8372329436E-05      44   33    1        -0.7585634563E-03      0.8599291111E-02

    ------------------------------------------------
       NWT REQUIRED            6 OUTER ITERATIONS 
       AND A TOTAL OF          6 INNER ITERATIONS.
    ------------------------------------------------

 OUTPUT CONTROL FOR STRESS PERIOD    1   TIME STEP  992
    SAVE HEAD FOR ALL LAYERS
 SOLVING FOR ZETA FOR LAYER     1 ZONE     2

     604 UPPER PART EQS.       608 LOWER PART EQS.    BAND WIDTH + 1 =   29
 STRESS PERIOD=  1 TIMESTEP=992 LAYER=  1 ZONE=  2 ACTIVE CELLS= 1212 NUMBER OF EQUATIONS=    1212
 SOLVING FOR ZETA FOR LAYER     2 ZONE     2

     625 UPPER PART EQS.       636 LOWER PART EQS.    BAND WIDTH + 1 =   36
 STRESS PERIOD=  1 TIMESTEP=992 LAYER=  2 ZONE=  2 ACTIVE CELLS= 1261 NUMBER OF EQUATIONS=    1261
 UBUDSV SAVING "      ZETASRF  1" ON UNIT 55 AT TIME STEP992, STRESS PERIOD    1

 HEAD WILL BE SAVED ON UNIT   51 AT END OF TIME STEP  992, STRESS PERIOD    1
 
 SOLVING FOR HEAD 
                                                   Max.-Head-Change                         Max.-Flux-Residual
  Residual-Control   Outer-Iter.   Inner-Iter.     Column Row Layer    Maximum-Head-Change  Column Row Layer    Maximum-Flux-Residual          L2-NORM 
          0                 1           1            36   13     1       0.6998358109E-03      36   13    1         0.5016525631E+00      0.3848469248E+01
          0                 2           1            44   31     1       0.6287131359E-04      45   32    1         0.1395378700E-01      0.9084788566E-01
          0                 3           1            43   31     2       0.3303622196E-04      47   30    1         0.2805663960E-02      0.2378775034E-01
          0                 4           1            19   30     1       0.1378126230E-04      44   33    1         0.1259248798E-02      0.1267540511E-01
          0                 5           1            16   33     1       0.1312010952E-04      16   33    1         0.9036658053E-03      0.8840851583E-02
          0                 6           1            19   30     1       0.7700674414E-05      44   33    1         0.5915945019E-03      0.6851629593E-02

    ------------------------------------------------
       NWT REQUIRED            6 OUTER ITERATIONS 
       AND A TOTAL OF          6 INNER ITERATIONS.
    ------------------------------------------------

 OUTPUT CONTROL FOR STRESS PERIOD    1   TIME STEP  993
    SAVE HEAD FOR ALL LAYERS
 SOLVING FOR ZETA FOR LAYER     1 ZONE     2

     620 UPPER PART EQS.       615 LOWER PART EQS.    BAND WIDTH + 1 =   26
 STRESS PERIOD=  1 TIMESTEP=993 LAYER=  1 ZONE=  2 ACTIVE CELLS= 1235 NUMBER OF EQUATIONS=    1235
 SOLVING FOR ZETA FOR LAYER     2 ZONE     2

     629 UPPER PART EQS.       636 LOWER PART EQS.    BAND WIDTH + 1 =   36
 STRESS PERIOD=  1 TIMESTEP=993 LAYER=  2 ZONE=  2 ACTIVE CELLS= 1265 NUMBER OF EQUATIONS=    1265
 UBUDSV SAVING "      ZETASRF  1" ON UNIT 55 AT TIME STEP993, STRESS PERIOD    1

 HEAD WILL BE SAVED ON UNIT   51 AT END OF TIME STEP  993, STRESS PERIOD    1
 
 SOLVING FOR HEAD 
                                                   Max.-Head-Change                         Max.-Flux-Residual
  Residual-Control   Outer-Iter.   Inner-Iter.     Column Row Layer    Maximum-Head-Change  Column Row Layer    Maximum-Flux-Residual          L2-NORM 
          0                 1           1            36   14     1       0.6887650434E-03      26   48    1        -0.5054666138E+00      0.3421226186E+01
          0                 2           1            44   33     1      -0.5399364160E-04      45   32    1        -0.1354654445E-01      0.8777593903E-01
          0                 3           1            43   31     2      -0.2409839143E-04      47   30    1        -0.2358099832E-02      0.1951446125E-01
          0                 4           1            19   30     1      -0.1018772650E-04      44   33    1        -0.1001050847E-02      0.9624554544E-02
          0                 5           1            20   28     2      -0.9078190812E-05      16   33    1        -0.6487103695E-03      0.6741820518E-02

    ------------------------------------------------
       NWT REQUIRED            5 OUTER ITERATIONS 
       AND A TOTAL OF          5 INNER ITERATIONS.
    ------------------------------------------------

 OUTPUT CONTROL FOR STRESS PERIOD    1   TIME STEP  994
    SAVE HEAD FOR ALL LAYERS
 SOLVING FOR ZETA FOR LAYER     1 ZONE     2

     610 UPPER PART EQS.       600 LOWER PART EQS.    BAND WIDTH + 1 =   28
 STRESS PERIOD=  1 TIMESTEP=994 LAYER=  1 ZONE=  2 ACTIVE CELLS= 1210 NUMBER OF EQUATIONS=    1210
 SOLVING FOR ZETA FOR LAYER     2 ZONE     2

     629 UPPER PART EQS.       636 LOWER PART EQS.    BAND WIDTH + 1 =   36
 STRESS PERIOD=  1 TIMESTEP=994 LAYER=  2 ZONE=  2 ACTIVE CELLS= 1265 NUMBER OF EQUATIONS=    1265
 UBUDSV SAVING "      ZETASRF  1" ON UNIT 55 AT TIME STEP994, STRESS PERIOD    1

 HEAD WILL BE SAVED ON UNIT   51 AT END OF TIME STEP  994, STRESS PERIOD    1
 
 SOLVING FOR HEAD 
                                                   Max.-Head-Change                         Max.-Flux-Residual
  Residual-Control   Outer-Iter.   Inner-Iter.     Column Row Layer    Maximum-Head-Change  Column Row Layer    Maximum-Flux-Residual          L2-NORM 
          0                 1           1            48   33     1       0.6964113541E-03      26   48    1         0.4929957206E+00      0.3249353263E+01
          0                 2           1            44   31     1       0.6930017225E-04      45   32    1         0.1427916738E-01      0.8590822107E-01
          0                 3           1            42   32     2       0.3878260498E-04      47   30    1         0.3093009608E-02      0.2465426212E-01
          0                 4           1            44   33     1       0.1689413933E-04      44   33    1         0.1499785242E-02      0.1531469206E-01
          0                 5           1            42   32     2       0.1819623568E-04      47   30    1         0.1127407069E-02      0.1242792258E-01
          0                 6           1            44   33     1       0.1034018002E-04      44   33    1         0.8884803563E-03      0.1087471097E-01
          0                 7           1            41   31     2       0.1279212442E-04      47   30    1         0.7065914057E-03      0.9542992843E-02
          0                 8           1            38   32     2       0.7782640304E-05      44   33    1         0.6571577054E-03      0.8656387232E-02

    ------------------------------------------------
       NWT REQUIRED            8 OUTER ITERATIONS 
       AND A TOTAL OF          8 INNER ITERATIONS.
    ------------------------------------------------

 OUTPUT CONTROL FOR STRESS PERIOD    1   TIME STEP  995
    SAVE HEAD FOR ALL LAYERS
 SOLVING FOR ZETA FOR LAYER     1 ZONE     2

     620 UPPER PART EQS.       619 LOWER PART EQS.    BAND WIDTH + 1 =   26
 STRESS PERIOD=  1 TIMESTEP=995 LAYER=  1 ZONE=  2 ACTIVE CELLS= 1239 NUMBER OF EQUATIONS=    1239
 SOLVING FOR ZETA FOR LAYER     2 ZONE     2

     629 UPPER PART EQS.       636 LOWER PART EQS.    BAND WIDTH + 1 =   36
 STRESS PERIOD=  1 TIMESTEP=995 LAYER=  2 ZONE=  2 ACTIVE CELLS= 1265 NUMBER OF EQUATIONS=    1265
 UBUDSV SAVING "      ZETASRF  1" ON UNIT 55 AT TIME STEP995, STRESS PERIOD    1

 HEAD WILL BE SAVED ON UNIT   51 AT END OF TIME STEP  995, STRESS PERIOD    1
 
 SOLVING FOR HEAD 
                                                   Max.-Head-Change                         Max.-Flux-Residual
  Residual-Control   Outer-Iter.   Inner-Iter.     Column Row Layer    Maximum-Head-Change  Column Row Layer    Maximum-Flux-Residual          L2-NORM 
          0                 1           1            48   35     1      -0.8552439956E-03      14   36    1        -0.5043451574E+00      0.3570026171E+01
          0                 2           1            44   31     1      -0.9128129040E-04      45   36    1        -0.1724114130E-01      0.1195685883E+00
          0                 3           1            42   32     2      -0.5666956077E-04      47   30    1        -0.3954212083E-02      0.3654430212E-01
          0                 4           1            44   31     1      -0.2419607882E-04      44   29    1        -0.2043848994E-02      0.2250721161E-01
          0                 5           1            42   32     2      -0.2724904850E-04      47   30    1        -0.1490318910E-02      0.1773532512E-01
          0                 6           1            44   31     1      -0.1427450865E-04      44   29    1        -0.1209352139E-02      0.1516772059E-01
          0                 7           1            41   31     2      -0.1995331332E-04      47   30    1        -0.8651858747E-03      0.1315655016E-01
          0                 8           1            38   32     2      -0.1012513472E-04      44   29    1        -0.8791234351E-03      0.1190310637E-01
          0                 9           1            34   32     2      -0.1579132493E-04      42   30    2        -0.6015028094E-03      0.1043300048E-01
          0                10           1            38   32     2      -0.7852139704E-05      44   29    1        -0.6908666192E-03      0.9575508891E-02

    ------------------------------------------------
       NWT REQUIRED           10 OUTER ITERATIONS 
       AND A TOTAL OF         10 INNER ITERATIONS.
    ------------------------------------------------

 OUTPUT CONTROL FOR STRESS PERIOD    1   TIME STEP  996
    SAVE HEAD FOR ALL LAYERS
 SOLVING FOR ZETA FOR LAYER     1 ZONE     2

     604 UPPER PART EQS.       608 LOWER PART EQS.    BAND WIDTH + 1 =   30
 STRESS PERIOD=  1 TIMESTEP=996 LAYER=  1 ZONE=  2 ACTIVE CELLS= 1212 NUMBER OF EQUATIONS=    1212
 SOLVING FOR ZETA FOR LAYER     2 ZONE     2

     629 UPPER PART EQS.       632 LOWER PART EQS.    BAND WIDTH + 1 =   36
 STRESS PERIOD=  1 TIMESTEP=996 LAYER=  2 ZONE=  2 ACTIVE CELLS= 1261 NUMBER OF EQUATIONS=    1261
 UBUDSV SAVING "      ZETASRF  1" ON UNIT 55 AT TIME STEP996, STRESS PERIOD    1

 HEAD WILL BE SAVED ON UNIT   51 AT END OF TIME STEP  996, STRESS PERIOD    1
 
 SOLVING FOR HEAD 
                                                   Max.-Head-Change                         Max.-Flux-Residual
  Residual-Control   Outer-Iter.   Inner-Iter.     Column Row Layer    Maximum-Head-Change  Column Row Layer    Maximum-Flux-Residual          L2-NORM 
          0                 1           1            48   35     1       0.8540398240E-03      36   48    1        -0.5038886724E+00      0.3737535188E+01
          0                 2           1            44   31     1       0.9146426281E-04      45   36    1         0.1727867657E-01      0.1183793482E+00
          0                 3           1            42   32     2       0.5404039113E-04      47   30    1         0.3906368124E-02      0.3509975711E-01
          0                 4           1            44   31     1       0.2262531474E-04      44   29    1         0.1903807667E-02      0.2107316190E-01
          0                 5           1            42   32     2       0.2355311238E-04      47   30    1         0.1417711220E-02      0.1649231696E-01
          0                 6           1            44   31     1       0.1297499760E-04      44   29    1         0.1072640179E-02      0.1405470530E-01
          0                 7           1            41   31     2       0.1641327364E-04      47   30    1         0.8081260131E-03      0.1216132140E-01
          0                 8           1            38   32     2       0.9420696131E-05      44   29    1         0.7656958638E-03      0.1098215160E-01

    ------------------------------------------------
       NWT REQUIRED            8 OUTER ITERATIONS 
       AND A TOTAL OF          8 INNER ITERATIONS.
    ------------------------------------------------

 OUTPUT CONTROL FOR STRESS PERIOD    1   TIME STEP  997
    SAVE HEAD FOR ALL LAYERS
 SOLVING FOR ZETA FOR LAYER     1 ZONE     2

     605 UPPER PART EQS.       616 LOWER PART EQS.    BAND WIDTH + 1 =   32
 STRESS PERIOD=  1 TIMESTEP=997 LAYER=  1 ZONE=  2 ACTIVE CELLS= 1221 NUMBER OF EQUATIONS=    1221
 SOLVING FOR ZETA FOR LAYER     2 ZONE     2

     629 UPPER PART EQS.       636 LOWER PART EQS.    BAND WIDTH + 1 =   36
 STRESS PERIOD=  1 TIMESTEP=997 LAYER=  2 ZONE=  2 ACTIVE CELLS= 1265 NUMBER OF EQUATIONS=    1265
 UBUDSV SAVING "      ZETASRF  1" ON UNIT 55 AT TIME STEP997, STRESS PERIOD    1

 HEAD WILL BE SAVED ON UNIT   51 AT END OF TIME STEP  997, STRESS PERIOD    1
 
 SOLVING FOR HEAD 
                                                   Max.-Head-Change                         Max.-Flux-Residual
  Residual-Control   Outer-Iter.   Inner-Iter.     Column Row Layer    Maximum-Head-Change  Column Row Layer    Maximum-Flux-Residual          L2-NORM 
          0                 1           1            48   33     1      -0.6901009100E-03      26   14    1        -0.5048418048E+00      0.3476939188E+01
          0                 2           1            44   31     1      -0.6236289690E-04      45   32    1        -0.1391678566E-01      0.8735865406E-01
          0                 3           1            43   31     2      -0.2908208134E-04      47   30    1        -0.2730217483E-02      0.2079256000E-01
          0                 4           1            18   32     2      -0.1263379296E-04      44   33    1        -0.1131928541E-02      0.1085107963E-01
          0                 5           1            16   33     1      -0.1062420345E-04      15   30    1        -0.8308726759E-03      0.7492592343E-02
          0                 6           1            19   30     1      -0.6972936018E-05      15   30    1        -0.5107001646E-03      0.5741841681E-02

    ------------------------------------------------
       NWT REQUIRED            6 OUTER ITERATIONS 
       AND A TOTAL OF          6 INNER ITERATIONS.
    ------------------------------------------------

 OUTPUT CONTROL FOR STRESS PERIOD    1   TIME STEP  998
    SAVE HEAD FOR ALL LAYERS
 SOLVING FOR ZETA FOR LAYER     1 ZONE     2

     609 UPPER PART EQS.       614 LOWER PART EQS.    BAND WIDTH + 1 =   30
 STRESS PERIOD=  1 TIMESTEP=998 LAYER=  1 ZONE=  2 ACTIVE CELLS= 1223 NUMBER OF EQUATIONS=    1223
 SOLVING FOR ZETA FOR LAYER     2 ZONE     2

     629 UPPER PART EQS.       634 LOWER PART EQS.    BAND WIDTH + 1 =   36
 STRESS PERIOD=  1 TIMESTEP=998 LAYER=  2 ZONE=  2 ACTIVE CELLS= 1263 NUMBER OF EQUATIONS=    1263
 UBUDSV SAVING "      ZETASRF  1" ON UNIT 55 AT TIME STEP998, STRESS PERIOD    1

 HEAD WILL BE SAVED ON UNIT   51 AT END OF TIME STEP  998, STRESS PERIOD    1
 
 SOLVING FOR HEAD 
                                                   Max.-Head-Change                         Max.-Flux-Residual
  Residual-Control   Outer-Iter.   Inner-Iter.     Column Row Layer    Maximum-Head-Change  Column Row Layer    Maximum-Flux-Residual          L2-NORM 
          0                 1           1            48   32     1       0.6794915369E-03      26   48    1         0.4923116864E+00      0.3339219012E+01
          0                 2           1            44   33     1       0.5410792822E-04      45   32    1         0.1358846315E-01      0.7761271238E-01
          0                 3           1            42   32     2       0.2483421819E-04      47   30    1         0.2357077294E-02      0.1777925641E-01
          0                 4           1            20   32     2       0.1018184749E-04      44   33    1         0.9965377070E-03      0.9335857246E-02
          0                 5           1            20   28     2       0.8875494803E-05      15   30    1         0.6717246259E-03      0.6740631769E-02

    ------------------------------------------------
       NWT REQUIRED            5 OUTER ITERATIONS 
       AND A TOTAL OF          5 INNER ITERATIONS.
    ------------------------------------------------

 OUTPUT CONTROL FOR STRESS PERIOD    1   TIME STEP  999
    SAVE HEAD FOR ALL LAYERS
 SOLVING FOR ZETA FOR LAYER     1 ZONE     2

     609 UPPER PART EQS.       616 LOWER PART EQS.    BAND WIDTH + 1 =   29
 STRESS PERIOD=  1 TIMESTEP=999 LAYER=  1 ZONE=  2 ACTIVE CELLS= 1225 NUMBER OF EQUATIONS=    1225
 SOLVING FOR ZETA FOR LAYER     2 ZONE     2

     629 UPPER PART EQS.       634 LOWER PART EQS.    BAND WIDTH + 1 =   36
 STRESS PERIOD=  1 TIMESTEP=999 LAYER=  2 ZONE=  2 ACTIVE CELLS= 1263 NUMBER OF EQUATIONS=    1263
 UBUDSV SAVING "      ZETASRF  1" ON UNIT 55 AT TIME STEP999, STRESS PERIOD    1

 HEAD WILL BE SAVED ON UNIT   51 AT END OF TIME STEP  999, STRESS PERIOD    1
 
 SOLVING FOR HEAD 
                                                   Max.-Head-Change                         Max.-Flux-Residual
  Residual-Control   Outer-Iter.   Inner-Iter.     Column Row Layer    Maximum-Head-Change  Column Row Layer    Maximum-Flux-Residual          L2-NORM 
          0                 1           1            48   32     1      -0.6882384299E-03      48   36    1        -0.5041884976E+00      0.3924580965E+01
          0                 2           1            44   31     1      -0.6558843267E-04      45   32    1        -0.1413551307E-01      0.8833444757E-01
          0                 3           1            42   32     2      -0.3735841750E-04      47   30    1        -0.2855840041E-02      0.2410292178E-01
          0                 4           1            43   30     1      -0.1534479499E-04      44   33    1        -0.1387306455E-02      0.1436235491E-01
          0                 5           1            42   32     2      -0.1602835964E-04      47   30    1        -0.1030930804E-02      0.1128811959E-01
          0                 6           1            43   30     1      -0.9080087459E-05      44   33    1        -0.8030474741E-03      0.9755682729E-02

    ------------------------------------------------
       NWT REQUIRED            6 OUTER ITERATIONS 
       AND A TOTAL OF          6 INNER ITERATIONS.
    ------------------------------------------------

 OUTPUT CONTROL FOR STRESS PERIOD    1   TIME STEP 1000
    PRINT BUDGET
    SAVE HEAD FOR ALL LAYERS
 SOLVING FOR ZETA FOR LAYER     1 ZONE     2

     598 UPPER PART EQS.       607 LOWER PART EQS.    BAND WIDTH + 1 =   34
 STRESS PERIOD=  1 TIMESTEP=*** LAYER=  1 ZONE=  2 ACTIVE CELLS= 1205 NUMBER OF EQUATIONS=    1205
 SOLVING FOR ZETA FOR LAYER     2 ZONE     2

     629 UPPER PART EQS.       636 LOWER PART EQS.    BAND WIDTH + 1 =   36
 STRESS PERIOD=  1 TIMESTEP=*** LAYER=  2 ZONE=  2 ACTIVE CELLS= 1265 NUMBER OF EQUATIONS=    1265
 UBUDSV SAVING "      ZETASRF  1" ON UNIT 55 AT TIME STEP***, STRESS PERIOD    1


                      VOLUMETRIC SWI ZONE BUDGET FOR ENTIRE MODEL
                     AT END OF TIME STEP 1000 IN STRESS PERIOD   1
                                      ZONE     1
  -----------------------------------------------------------------------------------

        CUMULATIVE VOLUMES      L**3       RATES FOR THIS TIME STEP      L**3/T
        ------------------                 ------------------------

              IN:                                      IN:
              ---                                      ---
             BOUNDARIES =   122712136.0000            BOUNDARIES =        1681.0000
          CONSTANT HEAD =           0.0000         CONSTANT HEAD =           0.0000
            ZONE CHANGE =      437264.6875           ZONE CHANGE =           3.1287
       ZONE CHG TIP/TOE =      406372.3750      ZONE CHG TIP/TOE =           5.2505
            ZONE MIXING =           0.0000           ZONE MIXING =           0.0000

               TOTAL IN =   123555776.0000              TOTAL IN =        1689.3792

             OUT:                                     OUT:
             ----                                     ----
             BOUNDARIES =   105048736.0000            BOUNDARIES =        1673.9362
          CONSTANT HEAD =           0.0000         CONSTANT HEAD =           0.0000
            ZONE CHANGE =    18820412.0000           ZONE CHANGE =          10.4839
       ZONE CHG TIP/TOE =      417406.2812      ZONE CHG TIP/TOE =           5.5182
            ZONE MIXING =           0.0000           ZONE MIXING =           0.0000

              TOTAL OUT =   124286560.0000             TOTAL OUT =        1689.9382

               IN - OUT =     -730784.0000              IN - OUT =          -0.5591

    PERCENT DISCREPANCY =          -0.59     PERCENT DISCREPANCY =          -0.03



                      VOLUMETRIC SWI ZONE BUDGET FOR ENTIRE MODEL
                     AT END OF TIME STEP 1000 IN STRESS PERIOD   1
                                      ZONE     2
  -----------------------------------------------------------------------------------

        CUMULATIVE VOLUMES      L**3       RATES FOR THIS TIME STEP      L**3/T
        ------------------                 ------------------------

              IN:                                      IN:
              ---                                      ---
             BOUNDARIES =           0.0000            BOUNDARIES =           0.0000
          CONSTANT HEAD =           0.0000         CONSTANT HEAD =           0.0000
            ZONE CHANGE =    18779544.0000           ZONE CHANGE =          10.2234
       ZONE CHG TIP/TOE =     1155702.0000      ZONE CHG TIP/TOE =           5.5361
            ZONE MIXING =           0.0000           ZONE MIXING =           0.0000

               TOTAL IN =    19935246.0000              TOTAL IN =          15.7595

             OUT:                                     OUT:
             ----                                     ----
             BOUNDARIES =    17654070.0000            BOUNDARIES =           7.3800
          CONSTANT HEAD =           0.0000         CONSTANT HEAD =           0.0000
            ZONE CHANGE =     1175558.6250           ZONE CHANGE =           3.1467
       ZONE CHG TIP/TOE =      365516.5000      ZONE CHG TIP/TOE =           4.9899
            ZONE MIXING =           0.0000           ZONE MIXING =           0.0000

              TOTAL OUT =    19195144.0000             TOTAL OUT =          15.5166

               IN - OUT =      740102.0000              IN - OUT =           0.2429

    PERCENT DISCREPANCY =           3.78     PERCENT DISCREPANCY =           1.55


 HEAD WILL BE SAVED ON UNIT   51 AT END OF TIME STEP 1000, STRESS PERIOD    1
1
  VOLUMETRIC BUDGET FOR ENTIRE MODEL AT END OF TIME STEP 1000, STRESS PERIOD   1
  ------------------------------------------------------------------------------

     CUMULATIVE VOLUMES      L**3       RATES FOR THIS TIME STEP      L**3/T
     ------------------                 ------------------------

           IN:                                      IN:
           ---                                      ---
             STORAGE =           0.0000               STORAGE =           0.0000
       CONSTANT HEAD =           0.0000         CONSTANT HEAD =           0.0000
               WELLS =   122712136.0000                 WELLS =        1681.0000
     HEAD DEP BOUNDS =           0.0000       HEAD DEP BOUNDS =           0.0000
          SWIADDTOCH =           0.0000            SWIADDTOCH =           0.0000

            TOTAL IN =   122712136.0000              TOTAL IN =        1681.0000

          OUT:                                     OUT:
          ----                                     ----
             STORAGE =           0.0000               STORAGE =           0.0000
       CONSTANT HEAD =           0.0000         CONSTANT HEAD =           0.0000
               WELLS =           0.0000                 WELLS =           0.0000
     HEAD DEP BOUNDS =   122702784.0000       HEAD DEP BOUNDS =        1681.3160
          SWIADDTOCH =           0.0000            SWIADDTOCH =           0.0000

           TOTAL OUT =   122702784.0000             TOTAL OUT =        1681.3160

            IN - OUT =        9352.0000              IN - OUT =          -0.3160

 PERCENT DISCREPANCY =           0.01     PERCENT DISCREPANCY =          -0.02






         TIME SUMMARY AT END OF TIME STEP 1000 IN STRESS PERIOD    1
                    SECONDS     MINUTES      HOURS       DAYS        YEARS
                    -----------------------------------------------------------
   TIME STEP LENGTH 6.30720E+06 1.05120E+05  1752.0      73.000     0.19986    
 STRESS PERIOD TIME 6.30720E+09 1.05120E+08 1.75200E+06  73000.      199.86    
         TOTAL TIME 6.30720E+09 1.05120E+08 1.75200E+06  73000.      199.86    
1
1
                            STRESS PERIOD NO.    2, LENGTH =   4380.000    
                            -----------------------------------------------

                              NUMBER OF TIME STEPS =   120

                               MULTIPLIER FOR DELT =     1.000

                            INITIAL TIME STEP SIZE =   36.50000    

   1683 WELLS

 REUSING NON-PARAMETER GHB CELLS FROM LAST STRESS PERIOD

   2040 GHB CELLS
 
 SOLVING FOR HEAD 
                                                   Max.-Head-Change                         Max.-Flux-Residual
  Residual-Control   Outer-Iter.   Inner-Iter.     Column Row Layer    Maximum-Head-Change  Column Row Layer    Maximum-Flux-Residual          L2-NORM 
          0                 1          11            36   31     1      -0.7123663664E+00      36   31    1        -0.2500002674E+03      0.2500217234E+03
          0                 2           1            30   30     2      -0.3911311488E-03      30   30    2        -0.3973765645E-01      0.2931131066E+00
          0                 3           1            27   33     2      -0.2978264944E-03      27   33    2        -0.2117859246E-01      0.1949053385E+00
          0                 4           1            30   30     2      -0.2170093202E-03      30   30    2        -0.1806955002E-01      0.1420498884E+00
          0                 5           1            27   33     2      -0.1721370193E-03      27   33    2        -0.1164858898E-01      0.1103519053E+00
          0                 6           1            30   30     2      -0.1408090296E-03      30   30    2        -0.9899485716E-02      0.9116743219E-01
          0                 7           1            27   31     2      -0.1111831111E-03      27   33    2        -0.7227777938E-02      0.7817120154E-01
          0                 8           1            30   30     2      -0.1013489491E-03      30   30    2        -0.6302211767E-02      0.6888535866E-01
          0                 9           1            27   31     2      -0.7859842726E-04      27   33    2        -0.5038383960E-02      0.6164945487E-01
          0                10           1            30   30     2      -0.7663332531E-04      30   30    2        -0.4487852418E-02      0.5539338601E-01
                                                   Max.-Head-Change                         Max.-Flux-Residual
  Residual-Control   Outer-Iter.   Inner-Iter.     Column Row Layer    Maximum-Head-Change  Column Row Layer    Maximum-Flux-Residual          L2-NORM 
          0                11           1            27   31     2      -0.5922195973E-04      27   33    2        -0.3783909687E-02      0.5026251904E-01
          0                12           1            30   30     2      -0.5955672238E-04      30   30    2        -0.3416864467E-02      0.4532266536E-01
          0                13           1            27   31     2      -0.4653168703E-04      27   33    2        -0.2948846167E-02      0.4128664346E-01
          0                14           1            30   30     2      -0.4718146793E-04      30   30    2        -0.2691595892E-02      0.3725586332E-01
          0                15           1            28   32     2      -0.3758718787E-04      32   33    1        -0.2361192937E-02      0.3397166053E-01
          0                16           1            30   30     2      -0.3783805480E-04      30   30    2        -0.2154602704E-02      0.3067268747E-01
          0                17           1            28   32     2      -0.3076131980E-04      32   33    1        -0.1929789636E-02      0.2797143527E-01
          0                18           1            32   32     2      -0.3065117269E-04      32   32    2        -0.1741781818E-02      0.2527059879E-01
          0                19           1            28   32     2      -0.2531221978E-04      32   33    1        -0.1582350023E-02      0.2304099123E-01
          0                20           1            31   29     2      -0.2504131097E-04      32   32    2        -0.1429981895E-02      0.2082810115E-01
                                                   Max.-Head-Change                         Max.-Flux-Residual
  Residual-Control   Outer-Iter.   Inner-Iter.     Column Row Layer    Maximum-Head-Change  Column Row Layer    Maximum-Flux-Residual          L2-NORM 
          0                21           1            28   32     2      -0.2087856643E-04      32   33    1        -0.1298649455E-02      0.1898565512E-01
          0                22           1            31   29     2      -0.2054669145E-04      32   32    2        -0.1172970456E-02      0.1717074268E-01
          0                23           1            28   32     2      -0.1723770815E-04      28   32    2        -0.1071928737E-02      0.1564771018E-01
          0                24           1            31   29     2      -0.1687248440E-04      32   32    2        -0.9606116828E-03      0.1415785802E-01
          0                25           1            28   32     2      -0.1423493022E-04      28   32    2        -0.8879640388E-03      0.1289879155E-01
          0                26           1            31   29     2      -0.1385879054E-04      32   32    2        -0.7852077799E-03      0.1167491674E-01
          0                27           1            28   32     2      -0.1175362550E-04      28   32    2        -0.7346632194E-03      0.1063409682E-01
          0                28           1            31   29     2      -0.1138258241E-04      31   29    2        -0.6483564879E-03      0.9628195429E-02
          0                29           1            28   32     2      -0.9701696034E-05      28   32    2        -0.6068919122E-03      0.8767828568E-02

    ------------------------------------------------
       NWT REQUIRED           29 OUTER ITERATIONS 
       AND A TOTAL OF         39 INNER ITERATIONS.
    ------------------------------------------------

 OUTPUT CONTROL FOR STRESS PERIOD    2   TIME STEP    1
    PRINT BUDGET
    SAVE HEAD FOR ALL LAYERS
 SOLVING FOR ZETA FOR LAYER     1 ZONE     2

     617 UPPER PART EQS.       622 LOWER PART EQS.    BAND WIDTH + 1 =   30
 STRESS PERIOD=  2 TIMESTEP=  1 LAYER=  1 ZONE=  2 ACTIVE CELLS= 1239 NUMBER OF EQUATIONS=    1239
 SOLVING FOR ZETA FOR LAYER     2 ZONE     2

     629 UPPER PART EQS.       636 LOWER PART EQS.    BAND WIDTH + 1 =   36
 STRESS PERIOD=  2 TIMESTEP=  1 LAYER=  2 ZONE=  2 ACTIVE CELLS= 1265 NUMBER OF EQUATIONS=    1265
 UBUDSV SAVING "      ZETASRF  1" ON UNIT 55 AT TIME STEP  1, STRESS PERIOD    2


                      VOLUMETRIC SWI ZONE BUDGET FOR ENTIRE MODEL
                     AT END OF TIME STEP    1 IN STRESS PERIOD   2
                                      ZONE     1
  -----------------------------------------------------------------------------------

        CUMULATIVE VOLUMES      L**3       RATES FOR THIS TIME STEP      L**3/T
        ------------------                 ------------------------

              IN:                                      IN:
              ---                                      ---
             BOUNDARIES =   122773456.0000            BOUNDARIES =        1680.0000
          CONSTANT HEAD =           0.0000         CONSTANT HEAD =           0.0000
            ZONE CHANGE =      443673.8125           ZONE CHANGE =         175.5923
       ZONE CHG TIP/TOE =      406579.8125      ZONE CHG TIP/TOE =           5.6832
            ZONE MIXING =           0.0000           ZONE MIXING =           0.0000

               TOTAL IN =   123623704.0000              TOTAL IN =        1861.2755

             OUT:                                     OUT:
             ----                                     ----
             BOUNDARIES =   105113032.0000            BOUNDARIES =        1761.4724
          CONSTANT HEAD =           0.0000         CONSTANT HEAD =           0.0000
            ZONE CHANGE =    18823856.0000           ZONE CHANGE =          94.3728
       ZONE CHG TIP/TOE =      417613.7188      ZONE CHG TIP/TOE =           5.6832
            ZONE MIXING =           0.0000           ZONE MIXING =           0.0000

              TOTAL OUT =   124354504.0000             TOTAL OUT =        1861.5284

               IN - OUT =     -730800.0000              IN - OUT =          -0.2529

    PERCENT DISCREPANCY =          -0.59     PERCENT DISCREPANCY =          -0.01



                      VOLUMETRIC SWI ZONE BUDGET FOR ENTIRE MODEL
                     AT END OF TIME STEP    1 IN STRESS PERIOD   2
                                      ZONE     2
  -----------------------------------------------------------------------------------

        CUMULATIVE VOLUMES      L**3       RATES FOR THIS TIME STEP      L**3/T
        ------------------                 ------------------------

              IN:                                      IN:
              ---                                      ---
             BOUNDARIES =        2962.7510            BOUNDARIES =          81.1713
          CONSTANT HEAD =           0.0000         CONSTANT HEAD =           0.0000
            ZONE CHANGE =    18782988.0000           ZONE CHANGE =          94.3728
       ZONE CHG TIP/TOE =     1155909.3750      ZONE CHG TIP/TOE =           5.6832
            ZONE MIXING =           0.0000           ZONE MIXING =           0.0000

               TOTAL IN =    19941860.0000              TOTAL IN =         181.2272

             OUT:                                     OUT:
             ----                                     ----
             BOUNDARIES =    17654070.0000            BOUNDARIES =           0.0000
          CONSTANT HEAD =           0.0000         CONSTANT HEAD =           0.0000
            ZONE CHANGE =     1181967.7500           ZONE CHANGE =         175.5923
       ZONE CHG TIP/TOE =      365723.9375      ZONE CHG TIP/TOE =           5.6832
            ZONE MIXING =           0.0000           ZONE MIXING =           0.0000

              TOTAL OUT =    19201762.0000             TOTAL OUT =         181.2755

               IN - OUT =      740098.0000              IN - OUT =      -4.8248E-02

    PERCENT DISCREPANCY =           3.78     PERCENT DISCREPANCY =          -0.03


 HEAD WILL BE SAVED ON UNIT   51 AT END OF TIME STEP    1, STRESS PERIOD    2
1
  VOLUMETRIC BUDGET FOR ENTIRE MODEL AT END OF TIME STEP    1, STRESS PERIOD   2
  ------------------------------------------------------------------------------

     CUMULATIVE VOLUMES      L**3       RATES FOR THIS TIME STEP      L**3/T
     ------------------                 ------------------------

           IN:                                      IN:
           ---                                      ---
             STORAGE =           0.0000               STORAGE =           0.0000
       CONSTANT HEAD =           0.0000         CONSTANT HEAD =           0.0000
               WELLS =   122773496.0000                 WELLS =        1681.0000
     HEAD DEP BOUNDS =        2962.7510       HEAD DEP BOUNDS =          81.1713
          SWIADDTOCH =           0.0000            SWIADDTOCH =           0.0000

            TOTAL IN =   122776456.0000              TOTAL IN =        1762.1713

          OUT:                                     OUT:
          ----                                     ----
             STORAGE =           0.0000               STORAGE =           0.0000
       CONSTANT HEAD =           0.0000         CONSTANT HEAD =           0.0000
               WELLS =        9125.0000                 WELLS =         250.0000
     HEAD DEP BOUNDS =   122757992.0000       HEAD DEP BOUNDS =        1512.4724
          SWIADDTOCH =           0.0000            SWIADDTOCH =           0.0000

           TOTAL OUT =   122767120.0000             TOTAL OUT =        1762.4724

            IN - OUT =        9336.0000              IN - OUT =          -0.3011

 PERCENT DISCREPANCY =           0.01     PERCENT DISCREPANCY =          -0.02






         TIME SUMMARY AT END OF TIME STEP    1 IN STRESS PERIOD    2
                    SECONDS     MINUTES      HOURS       DAYS        YEARS
                    -----------------------------------------------------------
   TIME STEP LENGTH 3.15360E+06  52560.      876.00      36.500     9.99316E-02
 STRESS PERIOD TIME 3.15360E+06  52560.      876.00      36.500     9.99316E-02
         TOTAL TIME 6.31035E+09 1.05173E+08 1.75288E+06  73036.      199.96    
1
 
 SOLVING FOR HEAD 
                                                   Max.-Head-Change                         Max.-Flux-Residual
  Residual-Control   Outer-Iter.   Inner-Iter.     Column Row Layer    Maximum-Head-Change  Column Row Layer    Maximum-Flux-Residual          L2-NORM 
          0                 1           2            36   31     2      -0.2581687154E-02      36   31    2        -0.1239075117E+01      0.2744791960E+01
          0                 2           1            37   31     2      -0.7037372122E-04      37   31    2        -0.4895900570E-02      0.5370234172E-01
          0                 3           1            41   31     2      -0.3523541695E-04      39   29    2        -0.3891958271E-02      0.3785378677E-01
          0                 4           1            42   31     1      -0.4916016169E-04      37   31    2        -0.2041403238E-02      0.2992785372E-01
          0                 5           1            41   31     2      -0.2323087463E-04      39   29    2        -0.2525394291E-02      0.2548713552E-01
          0                 6           1            37   31     2      -0.3936686298E-04      37   31    2        -0.1554621724E-02      0.2174622392E-01
          0                 7           1            34   32     2      -0.1739805313E-04      39   29    2        -0.1797260217E-02      0.1932531608E-01
          0                 8           1            37   31     2      -0.3169118476E-04      37   31    2        -0.1244830828E-02      0.1676413951E-01
          0                 9           1            33   31     2      -0.1434189997E-04      33   31    2        -0.1453126143E-02      0.1507292804E-01
          0                10           1            37   31     2      -0.2385476472E-04      37   31    2        -0.9980387659E-03      0.1319182242E-01
                                                   Max.-Head-Change                         Max.-Flux-Residual
  Residual-Control   Outer-Iter.   Inner-Iter.     Column Row Layer    Maximum-Head-Change  Column Row Layer    Maximum-Flux-Residual          L2-NORM 
          0                11           1            33   31     2      -0.1179611724E-04      33   31    2        -0.1154303867E-02      0.1191236171E-01
          0                12           1            37   31     2      -0.1784078687E-04      37   31    2        -0.8045786342E-03      0.1051112710E-01
          0                13           1            33   31     2      -0.9704446943E-05      33   31    2        -0.9101698093E-03      0.9513651174E-02

    ------------------------------------------------
       NWT REQUIRED           13 OUTER ITERATIONS 
       AND A TOTAL OF         14 INNER ITERATIONS.
    ------------------------------------------------

 OUTPUT CONTROL FOR STRESS PERIOD    2   TIME STEP    2
    PRINT BUDGET
    SAVE HEAD FOR ALL LAYERS
 SOLVING FOR ZETA FOR LAYER     1 ZONE     2

     630 UPPER PART EQS.       640 LOWER PART EQS.    BAND WIDTH + 1 =   33
 STRESS PERIOD=  2 TIMESTEP=  2 LAYER=  1 ZONE=  2 ACTIVE CELLS= 1270 NUMBER OF EQUATIONS=    1270
 SOLVING FOR ZETA FOR LAYER     2 ZONE     2

     629 UPPER PART EQS.       636 LOWER PART EQS.    BAND WIDTH + 1 =   36
 STRESS PERIOD=  2 TIMESTEP=  2 LAYER=  2 ZONE=  2 ACTIVE CELLS= 1265 NUMBER OF EQUATIONS=    1265
 UBUDSV SAVING "      ZETASRF  1" ON UNIT 55 AT TIME STEP  2, STRESS PERIOD    2


                      VOLUMETRIC SWI ZONE BUDGET FOR ENTIRE MODEL
                     AT END OF TIME STEP    2 IN STRESS PERIOD   2
                                      ZONE     1
  -----------------------------------------------------------------------------------

        CUMULATIVE VOLUMES      L**3       RATES FOR THIS TIME STEP      L**3/T
        ------------------                 ------------------------

              IN:                                      IN:
              ---                                      ---
             BOUNDARIES =   122834776.0000            BOUNDARIES =        1680.0000
          CONSTANT HEAD =           0.0000         CONSTANT HEAD =           0.0000
            ZONE CHANGE =      450022.6875           ZONE CHANGE =         173.9415
       ZONE CHG TIP/TOE =      406619.3750      ZONE CHG TIP/TOE =           1.0839
            ZONE MIXING =           0.0000           ZONE MIXING =           0.0000

               TOTAL IN =   123691416.0000              TOTAL IN =        1855.0254

             OUT:                                     OUT:
             ----                                     ----
             BOUNDARIES =   105177424.0000            BOUNDARIES =        1764.0554
          CONSTANT HEAD =           0.0000         CONSTANT HEAD =           0.0000
            ZONE CHANGE =    18827146.0000           ZONE CHANGE =          90.1609
       ZONE CHG TIP/TOE =      417653.2812      ZONE CHG TIP/TOE =           1.0839
            ZONE MIXING =           0.0000           ZONE MIXING =           0.0000

              TOTAL OUT =   124422224.0000             TOTAL OUT =        1855.3002

               IN - OUT =     -730808.0000              IN - OUT =          -0.2748

    PERCENT DISCREPANCY =          -0.59     PERCENT DISCREPANCY =          -0.01



                      VOLUMETRIC SWI ZONE BUDGET FOR ENTIRE MODEL
                     AT END OF TIME STEP    2 IN STRESS PERIOD   2
                                      ZONE     2
  -----------------------------------------------------------------------------------

        CUMULATIVE VOLUMES      L**3       RATES FOR THIS TIME STEP      L**3/T
        ------------------                 ------------------------

              IN:                                      IN:
              ---                                      ---
             BOUNDARIES =        6018.9302            BOUNDARIES =          83.7309
          CONSTANT HEAD =           0.0000         CONSTANT HEAD =           0.0000
            ZONE CHANGE =    18786278.0000           ZONE CHANGE =          90.1301
       ZONE CHG TIP/TOE =     1155949.0000      ZONE CHG TIP/TOE =           1.0839
            ZONE MIXING =           0.0000           ZONE MIXING =           0.0000

               TOTAL IN =    19948244.0000              TOTAL IN =         174.9449

             OUT:                                     OUT:
             ----                                     ----
             BOUNDARIES =    17654070.0000            BOUNDARIES =           0.0000
          CONSTANT HEAD =           0.0000         CONSTANT HEAD =           0.0000
            ZONE CHANGE =     1188316.6250           ZONE CHANGE =         173.9415
       ZONE CHG TIP/TOE =      365762.3750      ZONE CHG TIP/TOE =           1.0531
            ZONE MIXING =           0.0000           ZONE MIXING =           0.0000

              TOTAL OUT =    19208148.0000             TOTAL OUT =         174.9946

               IN - OUT =      740096.0000              IN - OUT =      -4.9652E-02

    PERCENT DISCREPANCY =           3.78     PERCENT DISCREPANCY =          -0.03


 HEAD WILL BE SAVED ON UNIT   51 AT END OF TIME STEP    2, STRESS PERIOD    2
1
  VOLUMETRIC BUDGET FOR ENTIRE MODEL AT END OF TIME STEP    2, STRESS PERIOD   2
  ------------------------------------------------------------------------------

     CUMULATIVE VOLUMES      L**3       RATES FOR THIS TIME STEP      L**3/T
     ------------------                 ------------------------

           IN:                                      IN:
           ---                                      ---
             STORAGE =           0.0000               STORAGE =           0.0000
       CONSTANT HEAD =           0.0000         CONSTANT HEAD =           0.0000
               WELLS =   122834856.0000                 WELLS =        1681.0000
     HEAD DEP BOUNDS =        6018.9302       HEAD DEP BOUNDS =          83.7309
          SWIADDTOCH =           0.0000            SWIADDTOCH =           0.0000

            TOTAL IN =   122840872.0000              TOTAL IN =        1764.7310

          OUT:                                     OUT:
          ----                                     ----
             STORAGE =           0.0000               STORAGE =           0.0000
       CONSTANT HEAD =           0.0000         CONSTANT HEAD =           0.0000
               WELLS =       18250.0000                 WELLS =         250.0000
     HEAD DEP BOUNDS =   122813288.0000       HEAD DEP BOUNDS =        1515.0554
          SWIADDTOCH =           0.0000            SWIADDTOCH =           0.0000

           TOTAL OUT =   122831536.0000             TOTAL OUT =        1765.0554

            IN - OUT =        9336.0000              IN - OUT =          -0.3245

 PERCENT DISCREPANCY =           0.01     PERCENT DISCREPANCY =          -0.02






         TIME SUMMARY AT END OF TIME STEP    2 IN STRESS PERIOD    2
                    SECONDS     MINUTES      HOURS       DAYS        YEARS
                    -----------------------------------------------------------
   TIME STEP LENGTH 3.15360E+06  52560.      876.00      36.500     9.99316E-02
 STRESS PERIOD TIME 6.30720E+06 1.05120E+05  1752.0      73.000     0.19986    
         TOTAL TIME 6.31351E+09 1.05225E+08 1.75375E+06  73073.      200.06    
1
 
 SOLVING FOR HEAD 
                                                   Max.-Head-Change                         Max.-Flux-Residual
  Residual-Control   Outer-Iter.   Inner-Iter.     Column Row Layer    Maximum-Head-Change  Column Row Layer    Maximum-Flux-Residual          L2-NORM 
          0                 1           2            36   31     2      -0.2358874062E-02      36   31    2        -0.1067361370E+01      0.2405111933E+01
          0                 2           1            37   31     2      -0.7291747292E-04      37   31    2        -0.4857956803E-02      0.5478472257E-01
          0                 3           1            41   31     2      -0.3622358497E-04      39   29    2        -0.3916097993E-02      0.4186946576E-01
          0                 4           1            42   31     1      -0.5221520017E-04      37   31    2        -0.2218751082E-02      0.3498197280E-01
          0                 5           1            39   29     2      -0.2537380670E-04      39   29    2        -0.2871855993E-02      0.3081910941E-01
          0                 6           1            37   31     2      -0.4883573493E-04      37   31    2        -0.1809685127E-02      0.2670162814E-01
          0                 7           1            33   31     2      -0.2138542352E-04      33   31    2        -0.2261107653E-02      0.2405653153E-01
          0                 8           1            37   31     2      -0.4032054702E-04      37   31    2        -0.1476461239E-02      0.2084181621E-01
          0                 9           1            33   31     2      -0.1746141072E-04      33   31    2        -0.1876084864E-02      0.1885049218E-01
          0                10           1            37   31     2      -0.3082837471E-04      37   31    2        -0.1184461129E-02      0.1636509204E-01
                                                   Max.-Head-Change                         Max.-Flux-Residual
  Residual-Control   Outer-Iter.   Inner-Iter.     Column Row Layer    Maximum-Head-Change  Column Row Layer    Maximum-Flux-Residual          L2-NORM 
          0                11           1            33   31     2      -0.1409480233E-04      33   31    2        -0.1490646145E-02      0.1482307058E-01
          0                12           1            37   31     2      -0.2326957597E-04      37   31    2        -0.9478277532E-03      0.1293706142E-01
          0                13           1            33   31     2      -0.1138225186E-04      33   31    2        -0.1169585437E-02      0.1173215357E-01
          0                14           1            37   31     2      -0.1766077686E-04      37   31    2        -0.7595225304E-03      0.1029544155E-01
          0                15           1            33   31     2      -0.9215776961E-05      33   31    2        -0.9155026713E-03      0.9345929233E-02

    ------------------------------------------------
       NWT REQUIRED           15 OUTER ITERATIONS 
       AND A TOTAL OF         16 INNER ITERATIONS.
    ------------------------------------------------

 OUTPUT CONTROL FOR STRESS PERIOD    2   TIME STEP    3
    PRINT BUDGET
    SAVE HEAD FOR ALL LAYERS
 SOLVING FOR ZETA FOR LAYER     1 ZONE     2

     636 UPPER PART EQS.       634 LOWER PART EQS.    BAND WIDTH + 1 =   25
 STRESS PERIOD=  2 TIMESTEP=  3 LAYER=  1 ZONE=  2 ACTIVE CELLS= 1270 NUMBER OF EQUATIONS=    1270
 SOLVING FOR ZETA FOR LAYER     2 ZONE     2

     629 UPPER PART EQS.       636 LOWER PART EQS.    BAND WIDTH + 1 =   36
 STRESS PERIOD=  2 TIMESTEP=  3 LAYER=  2 ZONE=  2 ACTIVE CELLS= 1265 NUMBER OF EQUATIONS=    1265
 UBUDSV SAVING "      ZETASRF  1" ON UNIT 55 AT TIME STEP  3, STRESS PERIOD    2


                      VOLUMETRIC SWI ZONE BUDGET FOR ENTIRE MODEL
                     AT END OF TIME STEP    3 IN STRESS PERIOD   2
                                      ZONE     1
  -----------------------------------------------------------------------------------

        CUMULATIVE VOLUMES      L**3       RATES FOR THIS TIME STEP      L**3/T
        ------------------                 ------------------------

              IN:                                      IN:
              ---                                      ---
             BOUNDARIES =   122896096.0000            BOUNDARIES =        1680.0000
          CONSTANT HEAD =           0.0000         CONSTANT HEAD =           0.0000
            ZONE CHANGE =      456279.4062           ZONE CHANGE =         171.4166
       ZONE CHG TIP/TOE =      406707.9688      ZONE CHG TIP/TOE =           2.4274
            ZONE MIXING =           0.0000           ZONE MIXING =           0.0000

               TOTAL IN =   123759080.0000              TOTAL IN =        1853.8440

             OUT:                                     OUT:
             ----                                     ----
             BOUNDARIES =   105241904.0000            BOUNDARIES =        1766.6212
          CONSTANT HEAD =           0.0000         CONSTANT HEAD =           0.0000
            ZONE CHANGE =    18830250.0000           ZONE CHANGE =          85.0659
       ZONE CHG TIP/TOE =      417741.8750      ZONE CHG TIP/TOE =           2.4274
            ZONE MIXING =           0.0000           ZONE MIXING =           0.0000

              TOTAL OUT =   124489896.0000             TOTAL OUT =        1854.1144

               IN - OUT =     -730816.0000              IN - OUT =          -0.2704

    PERCENT DISCREPANCY =          -0.59     PERCENT DISCREPANCY =          -0.01



                      VOLUMETRIC SWI ZONE BUDGET FOR ENTIRE MODEL
                     AT END OF TIME STEP    3 IN STRESS PERIOD   2
                                      ZONE     2
  -----------------------------------------------------------------------------------

        CUMULATIVE VOLUMES      L**3       RATES FOR THIS TIME STEP      L**3/T
        ------------------                 ------------------------

              IN:                                      IN:
              ---                                      ---
             BOUNDARIES =        9169.0186            BOUNDARIES =          86.3038
          CONSTANT HEAD =           0.0000         CONSTANT HEAD =           0.0000
            ZONE CHANGE =    18789370.0000           ZONE CHANGE =          84.7145
       ZONE CHG TIP/TOE =     1156037.6250      ZONE CHG TIP/TOE =           2.4274
            ZONE MIXING =           0.0000           ZONE MIXING =           0.0000

               TOTAL IN =    19954578.0000              TOTAL IN =         173.4457

             OUT:                                     OUT:
             ----                                     ----
             BOUNDARIES =    17654070.0000            BOUNDARIES =           0.0000
          CONSTANT HEAD =           0.0000         CONSTANT HEAD =           0.0000
            ZONE CHANGE =     1194573.3750           ZONE CHANGE =         171.4166
       ZONE CHG TIP/TOE =      365838.1562      ZONE CHG TIP/TOE =           2.0760
            ZONE MIXING =           0.0000           ZONE MIXING =           0.0000

              TOTAL OUT =    19214482.0000             TOTAL OUT =         173.4927

               IN - OUT =      740096.0000              IN - OUT =      -4.6982E-02

    PERCENT DISCREPANCY =           3.78     PERCENT DISCREPANCY =          -0.03


 HEAD WILL BE SAVED ON UNIT   51 AT END OF TIME STEP    3, STRESS PERIOD    2
1
  VOLUMETRIC BUDGET FOR ENTIRE MODEL AT END OF TIME STEP    3, STRESS PERIOD   2
  ------------------------------------------------------------------------------

     CUMULATIVE VOLUMES      L**3       RATES FOR THIS TIME STEP      L**3/T
     ------------------                 ------------------------

           IN:                                      IN:
           ---                                      ---
             STORAGE =           0.0000               STORAGE =           0.0000
       CONSTANT HEAD =           0.0000         CONSTANT HEAD =           0.0000
               WELLS =   122896216.0000                 WELLS =        1681.0000
     HEAD DEP BOUNDS =        9169.0186       HEAD DEP BOUNDS =          86.3038
          SWIADDTOCH =           0.0000            SWIADDTOCH =           0.0000

            TOTAL IN =   122905384.0000              TOTAL IN =        1767.3038

          OUT:                                     OUT:
          ----                                     ----
             STORAGE =           0.0000               STORAGE =           0.0000
       CONSTANT HEAD =           0.0000         CONSTANT HEAD =           0.0000
               WELLS =       27375.0000                 WELLS =         250.0000
     HEAD DEP BOUNDS =   122868680.0000       HEAD DEP BOUNDS =        1517.6212
          SWIADDTOCH =           0.0000            SWIADDTOCH =           0.0000

           TOTAL OUT =   122896056.0000             TOTAL OUT =        1767.6212

            IN - OUT =        9328.0000              IN - OUT =          -0.3174

 PERCENT DISCREPANCY =           0.01     PERCENT DISCREPANCY =          -0.02






         TIME SUMMARY AT END OF TIME STEP    3 IN STRESS PERIOD    2
                    SECONDS     MINUTES      HOURS       DAYS        YEARS
                    -----------------------------------------------------------
   TIME STEP LENGTH 3.15360E+06  52560.      876.00      36.500     9.99316E-02
 STRESS PERIOD TIME 9.46080E+06 1.57680E+05  2628.0      109.50     0.29979    
         TOTAL TIME 6.31666E+09 1.05278E+08 1.75463E+06  73110.      200.16    
1
 
 SOLVING FOR HEAD 
                                                   Max.-Head-Change                         Max.-Flux-Residual
  Residual-Control   Outer-Iter.   Inner-Iter.     Column Row Layer    Maximum-Head-Change  Column Row Layer    Maximum-Flux-Residual          L2-NORM 
          0                 1           2            36   31     2      -0.2163678412E-02      36   31    2        -0.9272523713E+00      0.2772738489E+01
          0                 2           1            37   31     2      -0.7790250878E-04      37   31    2        -0.5092568524E-02      0.5282735192E-01
          0                 3           1            41   31     2      -0.3638114020E-04      39   29    2        -0.3421823460E-02      0.4059227267E-01
          0                 4           1            42   31     1      -0.5224097033E-04      37   31    2        -0.2217657515E-02      0.3427804280E-01
          0                 5           1            39   29     2      -0.2515440692E-04      39   29    2        -0.2679021016E-02      0.3022165477E-01
          0                 6           1            37   31     2      -0.4834530632E-04      37   31    2        -0.1779268290E-02      0.2633883832E-01
          0                 7           1            33   31     2      -0.2104121344E-04      33   31    2        -0.2118076591E-02      0.2362690115E-01
          0                 8           1            37   31     2      -0.3887572172E-04      37   31    2        -0.1438396396E-02      0.2060913693E-01
          0                 9           1            33   31     2      -0.1726457093E-04      33   31    2        -0.1745756570E-02      0.1855666998E-01
          0                10           1            37   31     2      -0.2930808356E-04      37   31    2        -0.1154484539E-02      0.1624983445E-01
                                                   Max.-Head-Change                         Max.-Flux-Residual
  Residual-Control   Outer-Iter.   Inner-Iter.     Column Row Layer    Maximum-Head-Change  Column Row Layer    Maximum-Flux-Residual          L2-NORM 
          0                11           1            33   31     2      -0.1405706891E-04      33   31    2        -0.1382899783E-02      0.1466635266E-01
          0                12           1            37   31     2      -0.2201789744E-04      37   31    2        -0.9274086020E-03      0.1292152093E-01
          0                13           1            33   31     2      -0.1145283564E-04      33   31    2        -0.1086203809E-02      0.1168483785E-01
          0                14           1            37   31     2      -0.1674313530E-04      37   31    2        -0.7463537127E-03      0.1034971507E-01
          0                15           1            33   31     2      -0.9341909508E-05      33   31    2        -0.8535471822E-03      0.9372594094E-02

    ------------------------------------------------
       NWT REQUIRED           15 OUTER ITERATIONS 
       AND A TOTAL OF         16 INNER ITERATIONS.
    ------------------------------------------------

 OUTPUT CONTROL FOR STRESS PERIOD    2   TIME STEP    4
    PRINT BUDGET
    SAVE HEAD FOR ALL LAYERS
 SOLVING FOR ZETA FOR LAYER     1 ZONE     2

     634 UPPER PART EQS.       631 LOWER PART EQS.    BAND WIDTH + 1 =   25
 STRESS PERIOD=  2 TIMESTEP=  4 LAYER=  1 ZONE=  2 ACTIVE CELLS= 1265 NUMBER OF EQUATIONS=    1265
 SOLVING FOR ZETA FOR LAYER     2 ZONE     2

     629 UPPER PART EQS.       636 LOWER PART EQS.    BAND WIDTH + 1 =   36
 STRESS PERIOD=  2 TIMESTEP=  4 LAYER=  2 ZONE=  2 ACTIVE CELLS= 1265 NUMBER OF EQUATIONS=    1265
 UBUDSV SAVING "      ZETASRF  1" ON UNIT 55 AT TIME STEP  4, STRESS PERIOD    2


                      VOLUMETRIC SWI ZONE BUDGET FOR ENTIRE MODEL
                     AT END OF TIME STEP    4 IN STRESS PERIOD   2
                                      ZONE     1
  -----------------------------------------------------------------------------------

        CUMULATIVE VOLUMES      L**3       RATES FOR THIS TIME STEP      L**3/T
        ------------------                 ------------------------

              IN:                                      IN:
              ---                                      ---
             BOUNDARIES =   122957416.0000            BOUNDARIES =        1680.0000
          CONSTANT HEAD =           0.0000         CONSTANT HEAD =           0.0000
            ZONE CHANGE =      462425.8125           ZONE CHANGE =         168.3944
       ZONE CHG TIP/TOE =      406840.7812      ZONE CHG TIP/TOE =           3.6388
            ZONE MIXING =           0.0000           ZONE MIXING =           0.0000

               TOTAL IN =   123826680.0000              TOTAL IN =        1852.0332

             OUT:                                     OUT:
             ----                                     ----
             BOUNDARIES =   105306472.0000            BOUNDARIES =        1769.0037
          CONSTANT HEAD =           0.0000         CONSTANT HEAD =           0.0000
            ZONE CHANGE =    18833158.0000           ZONE CHANGE =          79.6680
       ZONE CHG TIP/TOE =      417873.4062      ZONE CHG TIP/TOE =           3.6038
            ZONE MIXING =           0.0000           ZONE MIXING =           0.0000

              TOTAL OUT =   124557504.0000             TOTAL OUT =        1852.2755

               IN - OUT =     -730824.0000              IN - OUT =          -0.2423

    PERCENT DISCREPANCY =          -0.59     PERCENT DISCREPANCY =          -0.01



                      VOLUMETRIC SWI ZONE BUDGET FOR ENTIRE MODEL
                     AT END OF TIME STEP    4 IN STRESS PERIOD   2
                                      ZONE     2
  -----------------------------------------------------------------------------------

        CUMULATIVE VOLUMES      L**3       RATES FOR THIS TIME STEP      L**3/T
        ------------------                 ------------------------

              IN:                                      IN:
              ---                                      ---
             BOUNDARIES =       12405.9258            BOUNDARIES =          88.6824
          CONSTANT HEAD =           0.0000         CONSTANT HEAD =           0.0000
            ZONE CHANGE =    18792264.0000           ZONE CHANGE =          79.2991
       ZONE CHG TIP/TOE =     1156169.2500      ZONE CHG TIP/TOE =           3.6061
            ZONE MIXING =           0.0000           ZONE MIXING =           0.0000

               TOTAL IN =    19960840.0000              TOTAL IN =         171.5877

             OUT:                                     OUT:
             ----                                     ----
             BOUNDARIES =    17654070.0000            BOUNDARIES =           0.0000
          CONSTANT HEAD =           0.0000         CONSTANT HEAD =           0.0000
            ZONE CHANGE =     1200719.8750           ZONE CHANGE =         168.3967
       ZONE CHG TIP/TOE =      365957.5000      ZONE CHG TIP/TOE =           3.2700
            ZONE MIXING =           0.0000           ZONE MIXING =           0.0000

              TOTAL OUT =    19220748.0000             TOTAL OUT =         171.6667

               IN - OUT =      740092.0000              IN - OUT =      -7.9010E-02

    PERCENT DISCREPANCY =           3.78     PERCENT DISCREPANCY =          -0.05


 HEAD WILL BE SAVED ON UNIT   51 AT END OF TIME STEP    4, STRESS PERIOD    2
1
  VOLUMETRIC BUDGET FOR ENTIRE MODEL AT END OF TIME STEP    4, STRESS PERIOD   2
  ------------------------------------------------------------------------------

     CUMULATIVE VOLUMES      L**3       RATES FOR THIS TIME STEP      L**3/T
     ------------------                 ------------------------

           IN:                                      IN:
           ---                                      ---
             STORAGE =           0.0000               STORAGE =           0.0000
       CONSTANT HEAD =           0.0000         CONSTANT HEAD =           0.0000
               WELLS =   122957576.0000                 WELLS =        1681.0000
     HEAD DEP BOUNDS =       12405.9258       HEAD DEP BOUNDS =          88.6824
          SWIADDTOCH =           0.0000            SWIADDTOCH =           0.0000

            TOTAL IN =   122969984.0000              TOTAL IN =        1769.6824

          OUT:                                     OUT:
          ----                                     ----
             STORAGE =           0.0000               STORAGE =           0.0000
       CONSTANT HEAD =           0.0000         CONSTANT HEAD =           0.0000
               WELLS =       36500.0000                 WELLS =         250.0000
     HEAD DEP BOUNDS =   122924160.0000       HEAD DEP BOUNDS =        1520.0037
          SWIADDTOCH =           0.0000            SWIADDTOCH =           0.0000

           TOTAL OUT =   122960656.0000             TOTAL OUT =        1770.0037

            IN - OUT =        9328.0000              IN - OUT =          -0.3213

 PERCENT DISCREPANCY =           0.01     PERCENT DISCREPANCY =          -0.02






         TIME SUMMARY AT END OF TIME STEP    4 IN STRESS PERIOD    2
                    SECONDS     MINUTES      HOURS       DAYS        YEARS
                    -----------------------------------------------------------
   TIME STEP LENGTH 3.15360E+06  52560.      876.00      36.500     9.99316E-02
 STRESS PERIOD TIME 1.26144E+07 2.10240E+05  3504.0      146.00     0.39973    
         TOTAL TIME 6.31981E+09 1.05330E+08 1.75550E+06  73146.      200.26    
1
 
 SOLVING FOR HEAD 
                                                   Max.-Head-Change                         Max.-Flux-Residual
  Residual-Control   Outer-Iter.   Inner-Iter.     Column Row Layer    Maximum-Head-Change  Column Row Layer    Maximum-Flux-Residual          L2-NORM 
          0                 1           2            36   31     2      -0.2001920102E-02      36   31    2        -0.8130982923E+00      0.2505832613E+01
          0                 2           1            37   31     2      -0.7108578540E-04      37   31    2        -0.4759068265E-02      0.4728011948E-01
          0                 3           1            41   31     2      -0.3280896117E-04      39   29    2        -0.3360033519E-02      0.3408423115E-01
          0                 4           1            42   31     1      -0.4615728011E-04      37   31    2        -0.1899239351E-02      0.2765028520E-01
          0                 5           1            41   31     2      -0.2135795110E-04      39   29    2        -0.2219502863E-02      0.2396399167E-01
          0                 6           1            37   31     2      -0.3772024651E-04      37   31    2        -0.1442892873E-02      0.2048639364E-01
          0                 7           1            34   32     2      -0.1655360015E-04      33   31    2        -0.1650036383E-02      0.1839685992E-01
          0                 8           1            37   31     2      -0.2919451669E-04      37   31    2        -0.1162263298E-02      0.1585977942E-01
          0                 9           1            33   31     2      -0.1377490225E-04      33   31    2        -0.1341960345E-02      0.1441668864E-01
          0                10           1            37   31     2      -0.2150153314E-04      37   31    2        -0.9421954209E-03      0.1254405570E-01
                                                   Max.-Head-Change                         Max.-Flux-Residual
  Residual-Control   Outer-Iter.   Inner-Iter.     Column Row Layer    Maximum-Head-Change  Column Row Layer    Maximum-Flux-Residual          L2-NORM 
          0                11           1            33   31     2      -0.1147656379E-04      33   31    2        -0.1062116838E-02      0.1145523427E-01
          0                12           1            37   31     2      -0.1599260578E-04      37   31    2        -0.7686685474E-03      0.1006349993E-01
          0                13           1            33   31     2      -0.9557758116E-05      33   31    2        -0.8397559371E-03      0.9204728510E-02

    ------------------------------------------------
       NWT REQUIRED           13 OUTER ITERATIONS 
       AND A TOTAL OF         14 INNER ITERATIONS.
    ------------------------------------------------

 OUTPUT CONTROL FOR STRESS PERIOD    2   TIME STEP    5
    PRINT BUDGET
    SAVE HEAD FOR ALL LAYERS
 SOLVING FOR ZETA FOR LAYER     1 ZONE     2

     628 UPPER PART EQS.       630 LOWER PART EQS.    BAND WIDTH + 1 =   27
 STRESS PERIOD=  2 TIMESTEP=  5 LAYER=  1 ZONE=  2 ACTIVE CELLS= 1258 NUMBER OF EQUATIONS=    1258
 SOLVING FOR ZETA FOR LAYER     2 ZONE     2

     629 UPPER PART EQS.       635 LOWER PART EQS.    BAND WIDTH + 1 =   36
 STRESS PERIOD=  2 TIMESTEP=  5 LAYER=  2 ZONE=  2 ACTIVE CELLS= 1264 NUMBER OF EQUATIONS=    1264
 UBUDSV SAVING "      ZETASRF  1" ON UNIT 55 AT TIME STEP  5, STRESS PERIOD    2


                      VOLUMETRIC SWI ZONE BUDGET FOR ENTIRE MODEL
                     AT END OF TIME STEP    5 IN STRESS PERIOD   2
                                      ZONE     1
  -----------------------------------------------------------------------------------

        CUMULATIVE VOLUMES      L**3       RATES FOR THIS TIME STEP      L**3/T
        ------------------                 ------------------------

              IN:                                      IN:
              ---                                      ---
             BOUNDARIES =   123018736.0000            BOUNDARIES =        1680.0000
          CONSTANT HEAD =           0.0000         CONSTANT HEAD =           0.0000
            ZONE CHANGE =      468487.6562           ZONE CHANGE =         166.0782
       ZONE CHG TIP/TOE =      407027.4375      ZONE CHG TIP/TOE =           5.1136
            ZONE MIXING =           0.0000           ZONE MIXING =           0.0000

               TOTAL IN =   123894248.0000              TOTAL IN =        1851.1918

             OUT:                                     OUT:
             ----                                     ----
             BOUNDARIES =   105371120.0000            BOUNDARIES =        1771.2621
          CONSTANT HEAD =           0.0000         CONSTANT HEAD =           0.0000
            ZONE CHANGE =    18835898.0000           ZONE CHANGE =          75.0788
       ZONE CHG TIP/TOE =      418060.0625      ZONE CHG TIP/TOE =           5.1136
            ZONE MIXING =           0.0000           ZONE MIXING =           0.0000

              TOTAL OUT =   124625080.0000             TOTAL OUT =        1851.4545

               IN - OUT =     -730832.0000              IN - OUT =          -0.2627

    PERCENT DISCREPANCY =          -0.59     PERCENT DISCREPANCY =          -0.01



                      VOLUMETRIC SWI ZONE BUDGET FOR ENTIRE MODEL
                     AT END OF TIME STEP    5 IN STRESS PERIOD   2
                                      ZONE     2
  -----------------------------------------------------------------------------------

        CUMULATIVE VOLUMES      L**3       RATES FOR THIS TIME STEP      L**3/T
        ------------------                 ------------------------

              IN:                                      IN:
              ---                                      ---
             BOUNDARIES =       15725.6797            BOUNDARIES =          90.9522
          CONSTANT HEAD =           0.0000         CONSTANT HEAD =           0.0000
            ZONE CHANGE =    18795000.0000           ZONE CHANGE =          74.9593
       ZONE CHG TIP/TOE =     1156355.8750      ZONE CHG TIP/TOE =           5.1136
            ZONE MIXING =           0.0000           ZONE MIXING =           0.0000

               TOTAL IN =    19967082.0000              TOTAL IN =         171.0251

             OUT:                                     OUT:
             ----                                     ----
             BOUNDARIES =    17654070.0000            BOUNDARIES =           0.0000
          CONSTANT HEAD =           0.0000         CONSTANT HEAD =           0.0000
            ZONE CHANGE =     1206781.7500           ZONE CHANGE =         166.0782
       ZONE CHG TIP/TOE =      366139.7812      ZONE CHG TIP/TOE =           4.9941
            ZONE MIXING =           0.0000           ZONE MIXING =           0.0000

              TOTAL OUT =    19226992.0000             TOTAL OUT =         171.0723

               IN - OUT =      740090.0000              IN - OUT =      -4.7226E-02

    PERCENT DISCREPANCY =           3.78     PERCENT DISCREPANCY =          -0.03


 HEAD WILL BE SAVED ON UNIT   51 AT END OF TIME STEP    5, STRESS PERIOD    2
1
  VOLUMETRIC BUDGET FOR ENTIRE MODEL AT END OF TIME STEP    5, STRESS PERIOD   2
  ------------------------------------------------------------------------------

     CUMULATIVE VOLUMES      L**3       RATES FOR THIS TIME STEP      L**3/T
     ------------------                 ------------------------

           IN:                                      IN:
           ---                                      ---
             STORAGE =           0.0000               STORAGE =           0.0000
       CONSTANT HEAD =           0.0000         CONSTANT HEAD =           0.0000
               WELLS =   123018936.0000                 WELLS =        1681.0000
     HEAD DEP BOUNDS =       15725.6797       HEAD DEP BOUNDS =          90.9522
          SWIADDTOCH =           0.0000            SWIADDTOCH =           0.0000

            TOTAL IN =   123034664.0000              TOTAL IN =        1771.9521

          OUT:                                     OUT:
          ----                                     ----
             STORAGE =           0.0000               STORAGE =           0.0000
       CONSTANT HEAD =           0.0000         CONSTANT HEAD =           0.0000
               WELLS =       45625.0000                 WELLS =         250.0000
     HEAD DEP BOUNDS =   122979720.0000       HEAD DEP BOUNDS =        1522.2621
          SWIADDTOCH =           0.0000            SWIADDTOCH =           0.0000

           TOTAL OUT =   123025344.0000             TOTAL OUT =        1772.2621

            IN - OUT =        9320.0000              IN - OUT =          -0.3099

 PERCENT DISCREPANCY =           0.01     PERCENT DISCREPANCY =          -0.02






         TIME SUMMARY AT END OF TIME STEP    5 IN STRESS PERIOD    2
                    SECONDS     MINUTES      HOURS       DAYS        YEARS
                    -----------------------------------------------------------
   TIME STEP LENGTH 3.15360E+06  52560.      876.00      36.500     9.99316E-02
 STRESS PERIOD TIME 1.57680E+07 2.62800E+05  4380.0      182.50     0.49966    
         TOTAL TIME 6.32297E+09 1.05383E+08 1.75638E+06  73182.      200.36    
1
 
 SOLVING FOR HEAD 
                                                   Max.-Head-Change                         Max.-Flux-Residual
  Residual-Control   Outer-Iter.   Inner-Iter.     Column Row Layer    Maximum-Head-Change  Column Row Layer    Maximum-Flux-Residual          L2-NORM 
          0                 1           2            36   31     2      -0.1862690345E-02      36   31    2        -0.7199829370E+00      0.2419070317E+01
          0                 2           1            37   31     2      -0.7107284660E-04      37   31    2        -0.4898887064E-02      0.4749223790E-01
          0                 3           1            41   31     2      -0.3420513881E-04      39   29    2        -0.3353678281E-02      0.3522877691E-01
          0                 4           1            42   31     1      -0.4595345945E-04      37   31    2        -0.2086833220E-02      0.2941939601E-01
          0                 5           1            39   29     2      -0.2315726724E-04      39   29    2        -0.2373080520E-02      0.2563872800E-01
          0                 6           1            37   31     2      -0.4047546055E-04      37   31    2        -0.1616166764E-02      0.2230755354E-01
          0                 7           1            34   32     2      -0.1848286445E-04      33   31    2        -0.1827829663E-02      0.1992581136E-01
          0                 8           1            37   31     2      -0.3240836305E-04      37   31    2        -0.1297682018E-02      0.1743085533E-01
          0                 9           1            33   31     2      -0.1520529578E-04      33   31    2        -0.1514681794E-02      0.1570336175E-01
          0                10           1            37   31     2      -0.2448207879E-04      37   31    2        -0.1043661858E-02      0.1379648169E-01
                                                   Max.-Head-Change                         Max.-Flux-Residual
  Residual-Control   Outer-Iter.   Inner-Iter.     Column Row Layer    Maximum-Head-Change  Column Row Layer    Maximum-Flux-Residual          L2-NORM 
          0                11           1            33   31     2      -0.1249521242E-04      33   31    2        -0.1210781413E-02      0.1248598525E-01
          0                12           1            37   31     2      -0.1841161597E-04      37   31    2        -0.8433829864E-03      0.1103080936E-01
          0                13           1            33   31     2      -0.1027655063E-04      33   31    2        -0.9596343136E-03      0.1000954892E-01
          0                14           1            37   31     2      -0.1400938178E-04      37   31    2        -0.6840825741E-03      0.8887333235E-02
          0                15           1            33   31     2      -0.8462798175E-05      33   31    2        -0.7607171799E-03      0.8076504402E-02

    ------------------------------------------------
       NWT REQUIRED           15 OUTER ITERATIONS 
       AND A TOTAL OF         16 INNER ITERATIONS.
    ------------------------------------------------

 OUTPUT CONTROL FOR STRESS PERIOD    2   TIME STEP    6
    PRINT BUDGET
    SAVE HEAD FOR ALL LAYERS
 SOLVING FOR ZETA FOR LAYER     1 ZONE     2

     638 UPPER PART EQS.       638 LOWER PART EQS.    BAND WIDTH + 1 =   26
 STRESS PERIOD=  2 TIMESTEP=  6 LAYER=  1 ZONE=  2 ACTIVE CELLS= 1276 NUMBER OF EQUATIONS=    1276
 SOLVING FOR ZETA FOR LAYER     2 ZONE     2

     629 UPPER PART EQS.       636 LOWER PART EQS.    BAND WIDTH + 1 =   36
 STRESS PERIOD=  2 TIMESTEP=  6 LAYER=  2 ZONE=  2 ACTIVE CELLS= 1265 NUMBER OF EQUATIONS=    1265
 UBUDSV SAVING "      ZETASRF  1" ON UNIT 55 AT TIME STEP  6, STRESS PERIOD    2


                      VOLUMETRIC SWI ZONE BUDGET FOR ENTIRE MODEL
                     AT END OF TIME STEP    6 IN STRESS PERIOD   2
                                      ZONE     1
  -----------------------------------------------------------------------------------

        CUMULATIVE VOLUMES      L**3       RATES FOR THIS TIME STEP      L**3/T
        ------------------                 ------------------------

              IN:                                      IN:
              ---                                      ---
             BOUNDARIES =   123080056.0000            BOUNDARIES =        1680.0000
          CONSTANT HEAD =           0.0000         CONSTANT HEAD =           0.0000
            ZONE CHANGE =      474521.2812           ZONE CHANGE =         165.3046
       ZONE CHG TIP/TOE =      407127.4375      ZONE CHG TIP/TOE =           2.7398
            ZONE MIXING =           0.0000           ZONE MIXING =           0.0000

               TOTAL IN =   123961704.0000              TOTAL IN =        1848.0446

             OUT:                                     OUT:
             ----                                     ----
             BOUNDARIES =   105435848.0000            BOUNDARIES =        1773.3939
          CONSTANT HEAD =           0.0000         CONSTANT HEAD =           0.0000
            ZONE CHANGE =    18838532.0000           ZONE CHANGE =          72.1443
       ZONE CHG TIP/TOE =      418160.0625      ZONE CHG TIP/TOE =           2.7398
            ZONE MIXING =           0.0000           ZONE MIXING =           0.0000

              TOTAL OUT =   124692544.0000             TOTAL OUT =        1848.2781

               IN - OUT =     -730840.0000              IN - OUT =          -0.2335

    PERCENT DISCREPANCY =          -0.59     PERCENT DISCREPANCY =          -0.01



                      VOLUMETRIC SWI ZONE BUDGET FOR ENTIRE MODEL
                     AT END OF TIME STEP    6 IN STRESS PERIOD   2
                                      ZONE     2
  -----------------------------------------------------------------------------------

        CUMULATIVE VOLUMES      L**3       RATES FOR THIS TIME STEP      L**3/T
        ------------------                 ------------------------

              IN:                                      IN:
              ---                                      ---
             BOUNDARIES =       19124.5039            BOUNDARIES =          93.1185
          CONSTANT HEAD =           0.0000         CONSTANT HEAD =           0.0000
            ZONE CHANGE =    18797634.0000           ZONE CHANGE =          72.1443
       ZONE CHG TIP/TOE =     1156455.8750      ZONE CHG TIP/TOE =           2.7398
            ZONE MIXING =           0.0000           ZONE MIXING =           0.0000

               TOTAL IN =    19973214.0000              TOTAL IN =         168.0026

             OUT:                                     OUT:
             ----                                     ----
             BOUNDARIES =    17654070.0000            BOUNDARIES =           0.0000
          CONSTANT HEAD =           0.0000         CONSTANT HEAD =           0.0000
            ZONE CHANGE =     1212815.3750           ZONE CHANGE =         165.3046
       ZONE CHG TIP/TOE =      366239.7812      ZONE CHG TIP/TOE =           2.7398
            ZONE MIXING =           0.0000           ZONE MIXING =           0.0000

              TOTAL OUT =    19233126.0000             TOTAL OUT =         168.0444

               IN - OUT =      740088.0000              IN - OUT =      -4.1809E-02

    PERCENT DISCREPANCY =           3.78     PERCENT DISCREPANCY =          -0.02


 HEAD WILL BE SAVED ON UNIT   51 AT END OF TIME STEP    6, STRESS PERIOD    2
1
  VOLUMETRIC BUDGET FOR ENTIRE MODEL AT END OF TIME STEP    6, STRESS PERIOD   2
  ------------------------------------------------------------------------------

     CUMULATIVE VOLUMES      L**3       RATES FOR THIS TIME STEP      L**3/T
     ------------------                 ------------------------

           IN:                                      IN:
           ---                                      ---
             STORAGE =           0.0000               STORAGE =           0.0000
       CONSTANT HEAD =           0.0000         CONSTANT HEAD =           0.0000
               WELLS =   123080296.0000                 WELLS =        1681.0000
     HEAD DEP BOUNDS =       19124.5039       HEAD DEP BOUNDS =          93.1185
          SWIADDTOCH =           0.0000            SWIADDTOCH =           0.0000

            TOTAL IN =   123099424.0000              TOTAL IN =        1774.1185

          OUT:                                     OUT:
          ----                                     ----
             STORAGE =           0.0000               STORAGE =           0.0000
       CONSTANT HEAD =           0.0000         CONSTANT HEAD =           0.0000
               WELLS =       54750.0000                 WELLS =         250.0000
     HEAD DEP BOUNDS =   123035360.0000       HEAD DEP BOUNDS =        1524.3939
          SWIADDTOCH =           0.0000            SWIADDTOCH =           0.0000

           TOTAL OUT =   123090112.0000             TOTAL OUT =        1774.3939

            IN - OUT =        9312.0000              IN - OUT =          -0.2754

 PERCENT DISCREPANCY =           0.01     PERCENT DISCREPANCY =          -0.02






         TIME SUMMARY AT END OF TIME STEP    6 IN STRESS PERIOD    2
                    SECONDS     MINUTES      HOURS       DAYS        YEARS
                    -----------------------------------------------------------
   TIME STEP LENGTH 3.15360E+06  52560.      876.00      36.500     9.99316E-02
 STRESS PERIOD TIME 1.89216E+07 3.15360E+05  5256.0      219.00     0.59959    
         TOTAL TIME 6.32612E+09 1.05435E+08 1.75726E+06  73219.      200.46    
1
 
 SOLVING FOR HEAD 
                                                   Max.-Head-Change                         Max.-Flux-Residual
  Residual-Control   Outer-Iter.   Inner-Iter.     Column Row Layer    Maximum-Head-Change  Column Row Layer    Maximum-Flux-Residual          L2-NORM 
          0                 1           2            36   31     2      -0.1743242651E-02      36   31    2        -0.6438439786E+00      0.2194866453E+01
          0                 2           1            37   31     2      -0.6479079440E-04      37   31    2        -0.4669432126E-02      0.4252444198E-01
          0                 3           1            41   31     2      -0.3056749291E-04      39   29    2        -0.3254365084E-02      0.2856664447E-01
          0                 4           1            42   31     1      -0.3965058438E-04      37   31    2        -0.1759152801E-02      0.2255899303E-01
          0                 5           1            41   31     2      -0.1868886428E-04      39   29    2        -0.1913046989E-02      0.1917608444E-01
          0                 6           1            37   31     2      -0.3067734529E-04      37   31    2        -0.1232462135E-02      0.1635348641E-01
          0                 7           1            34   32     2      -0.1325378985E-04      33   31    2        -0.1357206887E-02      0.1453217982E-01
          0                 8           1            37   31     2      -0.2425926498E-04      37   31    2        -0.9558404238E-03      0.1254162211E-01
          0                 9           1            34   32     2      -0.1081474931E-04      33   31    2        -0.1107170376E-02      0.1129320768E-01
          0                10           1            37   31     2      -0.1795232365E-04      37   31    2        -0.7569458703E-03      0.9832561018E-02
          0                11           1            33   31     2      -0.8886663013E-05      33   31    2        -0.8722627130E-03      0.8902508677E-02

    ------------------------------------------------
       NWT REQUIRED           11 OUTER ITERATIONS 
       AND A TOTAL OF         12 INNER ITERATIONS.
    ------------------------------------------------

 OUTPUT CONTROL FOR STRESS PERIOD    2   TIME STEP    7
    PRINT BUDGET
    SAVE HEAD FOR ALL LAYERS
 SOLVING FOR ZETA FOR LAYER     1 ZONE     2

     644 UPPER PART EQS.       648 LOWER PART EQS.    BAND WIDTH + 1 =   29
 STRESS PERIOD=  2 TIMESTEP=  7 LAYER=  1 ZONE=  2 ACTIVE CELLS= 1292 NUMBER OF EQUATIONS=    1292
 SOLVING FOR ZETA FOR LAYER     2 ZONE     2

     629 UPPER PART EQS.       636 LOWER PART EQS.    BAND WIDTH + 1 =   36
 STRESS PERIOD=  2 TIMESTEP=  7 LAYER=  2 ZONE=  2 ACTIVE CELLS= 1265 NUMBER OF EQUATIONS=    1265
 UBUDSV SAVING "      ZETASRF  1" ON UNIT 55 AT TIME STEP  7, STRESS PERIOD    2


                      VOLUMETRIC SWI ZONE BUDGET FOR ENTIRE MODEL
                     AT END OF TIME STEP    7 IN STRESS PERIOD   2
                                      ZONE     1
  -----------------------------------------------------------------------------------

        CUMULATIVE VOLUMES      L**3       RATES FOR THIS TIME STEP      L**3/T
        ------------------                 ------------------------

              IN:                                      IN:
              ---                                      ---
             BOUNDARIES =   123141376.0000            BOUNDARIES =        1680.0000
          CONSTANT HEAD =           0.0000         CONSTANT HEAD =           0.0000
            ZONE CHANGE =      480504.9375           ZONE CHANGE =         163.9361
       ZONE CHG TIP/TOE =      407151.6562      ZONE CHG TIP/TOE =           0.6633
            ZONE MIXING =           0.0000           ZONE MIXING =           0.0000

               TOTAL IN =   124029032.0000              TOTAL IN =        1844.5994

             OUT:                                     OUT:
             ----                                     ----
             BOUNDARIES =   105500648.0000            BOUNDARIES =        1775.3347
          CONSTANT HEAD =           0.0000         CONSTANT HEAD =           0.0000
            ZONE CHANGE =    18841046.0000           ZONE CHANGE =          68.8566
       ZONE CHG TIP/TOE =      418184.2812      ZONE CHG TIP/TOE =           0.6633
            ZONE MIXING =           0.0000           ZONE MIXING =           0.0000

              TOTAL OUT =   124759880.0000             TOTAL OUT =        1844.8545

               IN - OUT =     -730848.0000              IN - OUT =          -0.2551

    PERCENT DISCREPANCY =          -0.59     PERCENT DISCREPANCY =          -0.01



                      VOLUMETRIC SWI ZONE BUDGET FOR ENTIRE MODEL
                     AT END OF TIME STEP    7 IN STRESS PERIOD   2
                                      ZONE     2
  -----------------------------------------------------------------------------------

        CUMULATIVE VOLUMES      L**3       RATES FOR THIS TIME STEP      L**3/T
        ------------------                 ------------------------

              IN:                                      IN:
              ---                                      ---
             BOUNDARIES =       22593.2910            BOUNDARIES =          95.0353
          CONSTANT HEAD =           0.0000         CONSTANT HEAD =           0.0000
            ZONE CHANGE =    18800138.0000           ZONE CHANGE =          68.6015
       ZONE CHG TIP/TOE =     1156480.1250      ZONE CHG TIP/TOE =           0.6633
            ZONE MIXING =           0.0000           ZONE MIXING =           0.0000

               TOTAL IN =    19979212.0000              TOTAL IN =         164.3000

             OUT:                                     OUT:
             ----                                     ----
             BOUNDARIES =    17654070.0000            BOUNDARIES =           0.0000
          CONSTANT HEAD =           0.0000         CONSTANT HEAD =           0.0000
            ZONE CHANGE =     1218799.0000           ZONE CHANGE =         163.9361
       ZONE CHG TIP/TOE =      366254.6875      ZONE CHG TIP/TOE =           0.4081
            ZONE MIXING =           0.0000           ZONE MIXING =           0.0000

              TOTAL OUT =    19239122.0000             TOTAL OUT =         164.3443

               IN - OUT =      740090.0000              IN - OUT =      -4.4250E-02

    PERCENT DISCREPANCY =           3.77     PERCENT DISCREPANCY =          -0.03


 HEAD WILL BE SAVED ON UNIT   51 AT END OF TIME STEP    7, STRESS PERIOD    2
1
  VOLUMETRIC BUDGET FOR ENTIRE MODEL AT END OF TIME STEP    7, STRESS PERIOD   2
  ------------------------------------------------------------------------------

     CUMULATIVE VOLUMES      L**3       RATES FOR THIS TIME STEP      L**3/T
     ------------------                 ------------------------

           IN:                                      IN:
           ---                                      ---
             STORAGE =           0.0000               STORAGE =           0.0000
       CONSTANT HEAD =           0.0000         CONSTANT HEAD =           0.0000
               WELLS =   123141656.0000                 WELLS =        1681.0000
     HEAD DEP BOUNDS =       22593.2910       HEAD DEP BOUNDS =          95.0353
          SWIADDTOCH =           0.0000            SWIADDTOCH =           0.0000

            TOTAL IN =   123164248.0000              TOTAL IN =        1776.0353

          OUT:                                     OUT:
          ----                                     ----
             STORAGE =           0.0000               STORAGE =           0.0000
       CONSTANT HEAD =           0.0000         CONSTANT HEAD =           0.0000
               WELLS =       63875.0000                 WELLS =         250.0000
     HEAD DEP BOUNDS =   123091072.0000       HEAD DEP BOUNDS =        1526.3347
          SWIADDTOCH =           0.0000            SWIADDTOCH =           0.0000

           TOTAL OUT =   123154944.0000             TOTAL OUT =        1776.3347

            IN - OUT =        9304.0000              IN - OUT =          -0.2994

 PERCENT DISCREPANCY =           0.01     PERCENT DISCREPANCY =          -0.02






         TIME SUMMARY AT END OF TIME STEP    7 IN STRESS PERIOD    2
                    SECONDS     MINUTES      HOURS       DAYS        YEARS
                    -----------------------------------------------------------
   TIME STEP LENGTH 3.15360E+06  52560.      876.00      36.500     9.99316E-02
 STRESS PERIOD TIME 2.20752E+07 3.67920E+05  6132.0      255.50     0.69952    
         TOTAL TIME 6.32928E+09 1.05488E+08 1.75813E+06  73256.      200.56    
1
 
 SOLVING FOR HEAD 
                                                   Max.-Head-Change                         Max.-Flux-Residual
  Residual-Control   Outer-Iter.   Inner-Iter.     Column Row Layer    Maximum-Head-Change  Column Row Layer    Maximum-Flux-Residual          L2-NORM 
          0                 1           1            36   31     2      -0.1557054052E-02      36   31    2        -0.5814571679E+00      0.2052167020E+01
          0                 2           1            34   32     2      -0.1121394295E-03      39   29    2        -0.2068464429E-01      0.1057064719E+00
          0                 3           1            37   31     2      -0.7462166757E-04      37   31    2        -0.5397029497E-02      0.4776021700E-01
          0                 4           1            39   29     2      -0.3629716309E-04      39   29    2        -0.2884530078E-02      0.3715112255E-01
          0                 5           1            37   31     2      -0.4446334797E-04      37   31    2        -0.2463395760E-02      0.3230491028E-01
          0                 6           1            34   32     2      -0.2677241541E-04      34   32    2        -0.2239408154E-02      0.2880346933E-01
          0                 7           1            37   31     2      -0.3955089729E-04      37   31    2        -0.1949957012E-02      0.2559150724E-01
          0                 8           1            34   32     2      -0.2255769445E-04      34   32    2        -0.1865868348E-02      0.2318633720E-01
          0                 9           1            37   31     2      -0.3310759550E-04      37   31    2        -0.1591726199E-02      0.2057369490E-01
          0                10           1            34   32     2      -0.1854681990E-04      34   32    2        -0.1519632705E-02      0.1870771482E-01
                                                   Max.-Head-Change                         Max.-Flux-Residual
  Residual-Control   Outer-Iter.   Inner-Iter.     Column Row Layer    Maximum-Head-Change  Column Row Layer    Maximum-Flux-Residual          L2-NORM 
          0                11           1            37   31     2      -0.2669083620E-04      37   31    2        -0.1292207787E-02      0.1657882427E-01
          0                12           1            34   32     2      -0.1512403998E-04      35   33    2        -0.1244129210E-02      0.1508909369E-01
          0                13           1            37   31     2      -0.2124478442E-04      37   31    2        -0.1043836173E-02      0.1337690060E-01
          0                14           1            34   32     2      -0.1230942534E-04      35   33    2        -0.1041813591E-02      0.1217804590E-01
          0                15           1            37   31     2      -0.1684797899E-04      37   31    2        -0.8408430252E-03      0.1080794802E-01
          0                16           1            34   32     2      -0.1002088477E-04      35   33    2        -0.8667499463E-03      0.9839764799E-02
          0                17           1            37   31     2      -0.1334740954E-04      37   31    2        -0.6761754948E-03      0.8744671139E-02
          0                18           1            34   32     2      -0.8165911569E-05      35   33    2        -0.7174792846E-03      0.7960914298E-02

    ------------------------------------------------
       NWT REQUIRED           18 OUTER ITERATIONS 
       AND A TOTAL OF         18 INNER ITERATIONS.
    ------------------------------------------------

 OUTPUT CONTROL FOR STRESS PERIOD    2   TIME STEP    8
    PRINT BUDGET
    SAVE HEAD FOR ALL LAYERS
 SOLVING FOR ZETA FOR LAYER     1 ZONE     2

     640 UPPER PART EQS.       637 LOWER PART EQS.    BAND WIDTH + 1 =   27
 STRESS PERIOD=  2 TIMESTEP=  8 LAYER=  1 ZONE=  2 ACTIVE CELLS= 1277 NUMBER OF EQUATIONS=    1277
 SOLVING FOR ZETA FOR LAYER     2 ZONE     2

     629 UPPER PART EQS.       636 LOWER PART EQS.    BAND WIDTH + 1 =   36
 STRESS PERIOD=  2 TIMESTEP=  8 LAYER=  2 ZONE=  2 ACTIVE CELLS= 1265 NUMBER OF EQUATIONS=    1265
 UBUDSV SAVING "      ZETASRF  1" ON UNIT 55 AT TIME STEP  8, STRESS PERIOD    2


                      VOLUMETRIC SWI ZONE BUDGET FOR ENTIRE MODEL
                     AT END OF TIME STEP    8 IN STRESS PERIOD   2
                                      ZONE     1
  -----------------------------------------------------------------------------------

        CUMULATIVE VOLUMES      L**3       RATES FOR THIS TIME STEP      L**3/T
        ------------------                 ------------------------

              IN:                                      IN:
              ---                                      ---
             BOUNDARIES =   123202696.0000            BOUNDARIES =        1680.0000
          CONSTANT HEAD =           0.0000         CONSTANT HEAD =           0.0000
            ZONE CHANGE =      486403.4062           ZONE CHANGE =         161.6018
       ZONE CHG TIP/TOE =      407268.9688      ZONE CHG TIP/TOE =           3.2140
            ZONE MIXING =           0.0000           ZONE MIXING =           0.0000

               TOTAL IN =   124096368.0000              TOTAL IN =        1844.8158

             OUT:                                     OUT:
             ----                                     ----
             BOUNDARIES =   105565520.0000            BOUNDARIES =        1777.2385
          CONSTANT HEAD =           0.0000         CONSTANT HEAD =           0.0000
            ZONE CHANGE =    18843404.0000           ZONE CHANGE =          64.5911
       ZONE CHG TIP/TOE =      418299.6875      ZONE CHG TIP/TOE =           3.1619
            ZONE MIXING =           0.0000           ZONE MIXING =           0.0000

              TOTAL OUT =   124827224.0000             TOTAL OUT =        1844.9916

               IN - OUT =     -730856.0000              IN - OUT =          -0.1758

    PERCENT DISCREPANCY =          -0.59     PERCENT DISCREPANCY =          -0.01



                      VOLUMETRIC SWI ZONE BUDGET FOR ENTIRE MODEL
                     AT END OF TIME STEP    8 IN STRESS PERIOD   2
                                      ZONE     2
  -----------------------------------------------------------------------------------

        CUMULATIVE VOLUMES      L**3       RATES FOR THIS TIME STEP      L**3/T
        ------------------                 ------------------------

              IN:                                      IN:
              ---                                      ---
             BOUNDARIES =       26132.6191            BOUNDARIES =          96.9679
          CONSTANT HEAD =           0.0000         CONSTANT HEAD =           0.0000
            ZONE CHANGE =    18802484.0000           ZONE CHANGE =          64.2947
       ZONE CHG TIP/TOE =     1156595.5000      ZONE CHG TIP/TOE =           3.1619
            ZONE MIXING =           0.0000           ZONE MIXING =           0.0000

               TOTAL IN =    19985212.0000              TOTAL IN =         164.4246

             OUT:                                     OUT:
             ----                                     ----
             BOUNDARIES =    17654070.0000            BOUNDARIES =           0.0000
          CONSTANT HEAD =           0.0000         CONSTANT HEAD =           0.0000
            ZONE CHANGE =     1224697.5000           ZONE CHANGE =         161.6018
       ZONE CHG TIP/TOE =      366361.1875      ZONE CHG TIP/TOE =           2.9177
            ZONE MIXING =           0.0000           ZONE MIXING =           0.0000

              TOTAL OUT =    19245130.0000             TOTAL OUT =         164.5195

               IN - OUT =      740082.0000              IN - OUT =      -9.4940E-02

    PERCENT DISCREPANCY =           3.77     PERCENT DISCREPANCY =          -0.06


 HEAD WILL BE SAVED ON UNIT   51 AT END OF TIME STEP    8, STRESS PERIOD    2
1
  VOLUMETRIC BUDGET FOR ENTIRE MODEL AT END OF TIME STEP    8, STRESS PERIOD   2
  ------------------------------------------------------------------------------

     CUMULATIVE VOLUMES      L**3       RATES FOR THIS TIME STEP      L**3/T
     ------------------                 ------------------------

           IN:                                      IN:
           ---                                      ---
             STORAGE =           0.0000               STORAGE =           0.0000
       CONSTANT HEAD =           0.0000         CONSTANT HEAD =           0.0000
               WELLS =   123203016.0000                 WELLS =        1681.0000
     HEAD DEP BOUNDS =       26132.6191       HEAD DEP BOUNDS =          96.9679
          SWIADDTOCH =           0.0000            SWIADDTOCH =           0.0000

            TOTAL IN =   123229152.0000              TOTAL IN =        1777.9679

          OUT:                                     OUT:
          ----                                     ----
             STORAGE =           0.0000               STORAGE =           0.0000
       CONSTANT HEAD =           0.0000         CONSTANT HEAD =           0.0000
               WELLS =       73000.0000                 WELLS =         250.0000
     HEAD DEP BOUNDS =   123146856.0000       HEAD DEP BOUNDS =        1528.2385
          SWIADDTOCH =           0.0000            SWIADDTOCH =           0.0000

           TOTAL OUT =   123219856.0000             TOTAL OUT =        1778.2385

            IN - OUT =        9296.0000              IN - OUT =          -0.2706

 PERCENT DISCREPANCY =           0.01     PERCENT DISCREPANCY =          -0.02






         TIME SUMMARY AT END OF TIME STEP    8 IN STRESS PERIOD    2
                    SECONDS     MINUTES      HOURS       DAYS        YEARS
                    -----------------------------------------------------------
   TIME STEP LENGTH 3.15360E+06  52560.      876.00      36.500     9.99316E-02
 STRESS PERIOD TIME 2.52288E+07 4.20480E+05  7008.0      292.00     0.79945    
         TOTAL TIME 6.33243E+09 1.05540E+08 1.75901E+06  73292.      200.66    
1
 
 SOLVING FOR HEAD 
                                                   Max.-Head-Change                         Max.-Flux-Residual
  Residual-Control   Outer-Iter.   Inner-Iter.     Column Row Layer    Maximum-Head-Change  Column Row Layer    Maximum-Flux-Residual          L2-NORM 
          0                 1           1            36   31     2      -0.1467514837E-02      36   31    2        -0.5299998522E+00      0.2229132516E+01
          0                 2           1            34   32     2      -0.1080679486E-03      39   29    2        -0.2004573599E-01      0.1057002642E+00
          0                 3           1            37   31     2      -0.7144799203E-04      37   31    2        -0.5256915437E-02      0.4187703926E-01
          0                 4           1            41   31     2      -0.3184147711E-04      39   29    2        -0.2488211846E-02      0.2938014629E-01
          0                 5           1            37   31     2      -0.3573799112E-04      37   31    2        -0.2058606813E-02      0.2405062275E-01
          0                 6           1            39   29     2      -0.2179532528E-04      39   29    2        -0.1673997973E-02      0.2066655919E-01
          0                 7           1            37   31     2      -0.2872876793E-04      37   31    2        -0.1496501367E-02      0.1788873714E-01
          0                 8           1            34   32     2      -0.1597308392E-04      34   32    2        -0.1302751766E-02      0.1591456515E-01
          0                 9           1            37   31     2      -0.2290535521E-04      37   31    2        -0.1170010489E-02      0.1396651429E-01
          0                10           1            34   32     2      -0.1308392367E-04      34   34    2        -0.1028597707E-02      0.1261892227E-01
                                                   Max.-Head-Change                         Max.-Flux-Residual
  Residual-Control   Outer-Iter.   Inner-Iter.     Column Row Layer    Maximum-Head-Change  Column Row Layer    Maximum-Flux-Residual          L2-NORM 
          0                11           1            37   31     2      -0.1774772434E-04      37   31    2        -0.9297104457E-03      0.1114498935E-01
          0                12           1            34   32     2      -0.1075612415E-04      35   33    2        -0.8328740898E-03      0.1014561561E-01
          0                13           1            37   31     2      -0.1362263184E-04      37   31    2        -0.7465246221E-03      0.9004047534E-02
          0                14           1            34   32     2      -0.8885109232E-05      35   33    2        -0.6837471046E-03      0.8222798303E-02

    ------------------------------------------------
       NWT REQUIRED           14 OUTER ITERATIONS 
       AND A TOTAL OF         14 INNER ITERATIONS.
    ------------------------------------------------

 OUTPUT CONTROL FOR STRESS PERIOD    2   TIME STEP    9
    PRINT BUDGET
    SAVE HEAD FOR ALL LAYERS
 SOLVING FOR ZETA FOR LAYER     1 ZONE     2

     630 UPPER PART EQS.       648 LOWER PART EQS.    BAND WIDTH + 1 =   42
 STRESS PERIOD=  2 TIMESTEP=  9 LAYER=  1 ZONE=  2 ACTIVE CELLS= 1278 NUMBER OF EQUATIONS=    1278
 SOLVING FOR ZETA FOR LAYER     2 ZONE     2

     629 UPPER PART EQS.       636 LOWER PART EQS.    BAND WIDTH + 1 =   36
 STRESS PERIOD=  2 TIMESTEP=  9 LAYER=  2 ZONE=  2 ACTIVE CELLS= 1265 NUMBER OF EQUATIONS=    1265
 UBUDSV SAVING "      ZETASRF  1" ON UNIT 55 AT TIME STEP  9, STRESS PERIOD    2


                      VOLUMETRIC SWI ZONE BUDGET FOR ENTIRE MODEL
                     AT END OF TIME STEP    9 IN STRESS PERIOD   2
                                      ZONE     1
  -----------------------------------------------------------------------------------

        CUMULATIVE VOLUMES      L**3       RATES FOR THIS TIME STEP      L**3/T
        ------------------                 ------------------------

              IN:                                      IN:
              ---                                      ---
             BOUNDARIES =   123264016.0000            BOUNDARIES =        1680.0000
          CONSTANT HEAD =           0.0000         CONSTANT HEAD =           0.0000
            ZONE CHANGE =      492251.2188           ZONE CHANGE =         160.2138
       ZONE CHG TIP/TOE =      407404.6875      ZONE CHG TIP/TOE =           3.7186
            ZONE MIXING =           0.0000           ZONE MIXING =           0.0000

               TOTAL IN =   124163672.0000              TOTAL IN =        1843.9325

             OUT:                                     OUT:
             ----                                     ----
             BOUNDARIES =   105630456.0000            BOUNDARIES =        1779.0466
          CONSTANT HEAD =           0.0000         CONSTANT HEAD =           0.0000
            ZONE CHANGE =    18845646.0000           ZONE CHANGE =          61.3999
       ZONE CHG TIP/TOE =      418435.4062      ZONE CHG TIP/TOE =           3.7186
            ZONE MIXING =           0.0000           ZONE MIXING =           0.0000

              TOTAL OUT =   124894536.0000             TOTAL OUT =        1844.1652

               IN - OUT =     -730864.0000              IN - OUT =          -0.2327

    PERCENT DISCREPANCY =          -0.59     PERCENT DISCREPANCY =          -0.01



                      VOLUMETRIC SWI ZONE BUDGET FOR ENTIRE MODEL
                     AT END OF TIME STEP    9 IN STRESS PERIOD   2
                                      ZONE     2
  -----------------------------------------------------------------------------------

        CUMULATIVE VOLUMES      L**3       RATES FOR THIS TIME STEP      L**3/T
        ------------------                 ------------------------

              IN:                                      IN:
              ---                                      ---
             BOUNDARIES =       29737.8086            BOUNDARIES =          98.7723
          CONSTANT HEAD =           0.0000         CONSTANT HEAD =           0.0000
            ZONE CHANGE =    18804718.0000           ZONE CHANGE =          61.1805
       ZONE CHG TIP/TOE =     1156731.2500      ZONE CHG TIP/TOE =           3.7186
            ZONE MIXING =           0.0000           ZONE MIXING =           0.0000

               TOTAL IN =    19991188.0000              TOTAL IN =         163.6714

             OUT:                                     OUT:
             ----                                     ----
             BOUNDARIES =    17654070.0000            BOUNDARIES =           0.0000
          CONSTANT HEAD =           0.0000         CONSTANT HEAD =           0.0000
            ZONE CHANGE =     1230545.2500           ZONE CHANGE =         160.2138
       ZONE CHG TIP/TOE =      366488.9062      ZONE CHG TIP/TOE =           3.4992
            ZONE MIXING =           0.0000           ZONE MIXING =           0.0000

              TOTAL OUT =    19251104.0000             TOTAL OUT =         163.7131

               IN - OUT =      740084.0000              IN - OUT =      -4.1641E-02

    PERCENT DISCREPANCY =           3.77     PERCENT DISCREPANCY =          -0.03


 HEAD WILL BE SAVED ON UNIT   51 AT END OF TIME STEP    9, STRESS PERIOD    2
1
  VOLUMETRIC BUDGET FOR ENTIRE MODEL AT END OF TIME STEP    9, STRESS PERIOD   2
  ------------------------------------------------------------------------------

     CUMULATIVE VOLUMES      L**3       RATES FOR THIS TIME STEP      L**3/T
     ------------------                 ------------------------

           IN:                                      IN:
           ---                                      ---
             STORAGE =           0.0000               STORAGE =           0.0000
       CONSTANT HEAD =           0.0000         CONSTANT HEAD =           0.0000
               WELLS =   123264376.0000                 WELLS =        1681.0000
     HEAD DEP BOUNDS =       29737.8086       HEAD DEP BOUNDS =          98.7723
          SWIADDTOCH =           0.0000            SWIADDTOCH =           0.0000

            TOTAL IN =   123294112.0000              TOTAL IN =        1779.7723

          OUT:                                     OUT:
          ----                                     ----
             STORAGE =           0.0000               STORAGE =           0.0000
       CONSTANT HEAD =           0.0000         CONSTANT HEAD =           0.0000
               WELLS =       82125.0000                 WELLS =         250.0000
     HEAD DEP BOUNDS =   123202704.0000       HEAD DEP BOUNDS =        1530.0466
          SWIADDTOCH =           0.0000            SWIADDTOCH =           0.0000

           TOTAL OUT =   123284832.0000             TOTAL OUT =        1780.0466

            IN - OUT =        9280.0000              IN - OUT =          -0.2743

 PERCENT DISCREPANCY =           0.01     PERCENT DISCREPANCY =          -0.02






         TIME SUMMARY AT END OF TIME STEP    9 IN STRESS PERIOD    2
                    SECONDS     MINUTES      HOURS       DAYS        YEARS
                    -----------------------------------------------------------
   TIME STEP LENGTH 3.15360E+06  52560.      876.00      36.500     9.99316E-02
 STRESS PERIOD TIME 2.83824E+07 4.73040E+05  7884.0      328.50     0.89938    
         TOTAL TIME 6.33558E+09 1.05593E+08 1.75988E+06  73328.      200.76    
1
 
 SOLVING FOR HEAD 
                                                   Max.-Head-Change                         Max.-Flux-Residual
  Residual-Control   Outer-Iter.   Inner-Iter.     Column Row Layer    Maximum-Head-Change  Column Row Layer    Maximum-Flux-Residual          L2-NORM 
          0                 1           1            36   31     2      -0.1392877756E-02      36   31    2        -0.4875086546E+00      0.2232841121E+01
          0                 2           1            34   32     2      -0.1089237557E-03      39   29    2        -0.1958785874E-01      0.9505077480E-01
          0                 3           1            37   31     2      -0.6647982951E-04      37   31    2        -0.5143952172E-02      0.3990621811E-01
          0                 4           1            39   29     2      -0.3061790428E-04      39   29    2        -0.2673441464E-02      0.2878293860E-01
          0                 5           1            37   31     2      -0.3507118399E-04      37   31    2        -0.2042161557E-02      0.2433242270E-01
          0                 6           1            39   29     2      -0.2124991683E-04      39   29    2        -0.1743941280E-02      0.2139950080E-01
          0                 7           1            37   31     2      -0.2942118797E-04      37   31    2        -0.1539650403E-02      0.1894817859E-01
          0                 8           1            34   32     2      -0.1727575132E-04      33   31    2        -0.1430439736E-02      0.1706783577E-01
          0                 9           1            37   31     2      -0.2422373036E-04      37   31    2        -0.1247641822E-02      0.1519424018E-01
          0                10           1            33   31     2      -0.1436650283E-04      33   31    2        -0.1198058037E-02      0.1376295362E-01
                                                   Max.-Head-Change                         Max.-Flux-Residual
  Residual-Control   Outer-Iter.   Inner-Iter.     Column Row Layer    Maximum-Head-Change  Column Row Layer    Maximum-Flux-Residual          L2-NORM 
          0                11           1            37   31     2      -0.1940998777E-04      37   31    2        -0.1014867313E-02      0.1227061717E-01
          0                12           1            33   31     2      -0.1185823368E-04      33   31    2        -0.9880015165E-03      0.1113300458E-01
          0                13           1            37   31     2      -0.1541848697E-04      37   31    2        -0.8241146747E-03      0.9940373164E-02
          0                14           1            33   31     2      -0.9739653297E-05      33   31    2        -0.8079359599E-03      0.9024480819E-02

    ------------------------------------------------
       NWT REQUIRED           14 OUTER ITERATIONS 
       AND A TOTAL OF         14 INNER ITERATIONS.
    ------------------------------------------------

 OUTPUT CONTROL FOR STRESS PERIOD    2   TIME STEP   10
    PRINT BUDGET
    SAVE HEAD FOR ALL LAYERS
 SOLVING FOR ZETA FOR LAYER     1 ZONE     2

     640 UPPER PART EQS.       638 LOWER PART EQS.    BAND WIDTH + 1 =   26
 STRESS PERIOD=  2 TIMESTEP= 10 LAYER=  1 ZONE=  2 ACTIVE CELLS= 1278 NUMBER OF EQUATIONS=    1278
 SOLVING FOR ZETA FOR LAYER     2 ZONE     2

     629 UPPER PART EQS.       636 LOWER PART EQS.    BAND WIDTH + 1 =   36
 STRESS PERIOD=  2 TIMESTEP= 10 LAYER=  2 ZONE=  2 ACTIVE CELLS= 1265 NUMBER OF EQUATIONS=    1265
 UBUDSV SAVING "      ZETASRF  1" ON UNIT 55 AT TIME STEP 10, STRESS PERIOD    2


                      VOLUMETRIC SWI ZONE BUDGET FOR ENTIRE MODEL
                     AT END OF TIME STEP   10 IN STRESS PERIOD   2
                                      ZONE     1
  -----------------------------------------------------------------------------------

        CUMULATIVE VOLUMES      L**3       RATES FOR THIS TIME STEP      L**3/T
        ------------------                 ------------------------

              IN:                                      IN:
              ---                                      ---
             BOUNDARIES =   123325336.0000            BOUNDARIES =        1680.0000
          CONSTANT HEAD =           0.0000         CONSTANT HEAD =           0.0000
            ZONE CHANGE =      498051.0312           ZONE CHANGE =         158.8994
       ZONE CHG TIP/TOE =      407542.1875      ZONE CHG TIP/TOE =           3.7673
            ZONE MIXING =           0.0000           ZONE MIXING =           0.0000

               TOTAL IN =   124230928.0000              TOTAL IN =        1842.6667

             OUT:                                     OUT:
             ----                                     ----
             BOUNDARIES =   105695456.0000            BOUNDARIES =        1780.7257
          CONSTANT HEAD =           0.0000         CONSTANT HEAD =           0.0000
            ZONE CHANGE =    18847778.0000           ZONE CHANGE =          58.4350
       ZONE CHG TIP/TOE =      418572.9062      ZONE CHG TIP/TOE =           3.7673
            ZONE MIXING =           0.0000           ZONE MIXING =           0.0000

              TOTAL OUT =   124961808.0000             TOTAL OUT =        1842.9281

               IN - OUT =     -730880.0000              IN - OUT =          -0.2614

    PERCENT DISCREPANCY =          -0.59     PERCENT DISCREPANCY =          -0.01



                      VOLUMETRIC SWI ZONE BUDGET FOR ENTIRE MODEL
                     AT END OF TIME STEP   10 IN STRESS PERIOD   2
                                      ZONE     2
  -----------------------------------------------------------------------------------

        CUMULATIVE VOLUMES      L**3       RATES FOR THIS TIME STEP      L**3/T
        ------------------                 ------------------------

              IN:                                      IN:
              ---                                      ---
             BOUNDARIES =       33403.0000            BOUNDARIES =         100.4162
          CONSTANT HEAD =           0.0000         CONSTANT HEAD =           0.0000
            ZONE CHANGE =    18806850.0000           ZONE CHANGE =          58.4350
       ZONE CHG TIP/TOE =     1156868.7500      ZONE CHG TIP/TOE =           3.7673
            ZONE MIXING =           0.0000           ZONE MIXING =           0.0000

               TOTAL IN =    19997120.0000              TOTAL IN =         162.6185

             OUT:                                     OUT:
             ----                                     ----
             BOUNDARIES =    17654070.0000            BOUNDARIES =           0.0000
          CONSTANT HEAD =           0.0000         CONSTANT HEAD =           0.0000
            ZONE CHANGE =     1236345.1250           ZONE CHANGE =         158.8994
       ZONE CHG TIP/TOE =      366626.4062      ZONE CHG TIP/TOE =           3.7673
            ZONE MIXING =           0.0000           ZONE MIXING =           0.0000

              TOTAL OUT =    19257042.0000             TOTAL OUT =         162.6667

               IN - OUT =      740078.0000              IN - OUT =      -4.8172E-02

    PERCENT DISCREPANCY =           3.77     PERCENT DISCREPANCY =          -0.03


 HEAD WILL BE SAVED ON UNIT   51 AT END OF TIME STEP   10, STRESS PERIOD    2
1
  VOLUMETRIC BUDGET FOR ENTIRE MODEL AT END OF TIME STEP   10, STRESS PERIOD   2
  ------------------------------------------------------------------------------

     CUMULATIVE VOLUMES      L**3       RATES FOR THIS TIME STEP      L**3/T
     ------------------                 ------------------------

           IN:                                      IN:
           ---                                      ---
             STORAGE =           0.0000               STORAGE =           0.0000
       CONSTANT HEAD =           0.0000         CONSTANT HEAD =           0.0000
               WELLS =   123325736.0000                 WELLS =        1681.0000
     HEAD DEP BOUNDS =       33403.0000       HEAD DEP BOUNDS =         100.4162
          SWIADDTOCH =           0.0000            SWIADDTOCH =           0.0000

            TOTAL IN =   123359136.0000              TOTAL IN =        1781.4161

          OUT:                                     OUT:
          ----                                     ----
             STORAGE =           0.0000               STORAGE =           0.0000
       CONSTANT HEAD =           0.0000         CONSTANT HEAD =           0.0000
               WELLS =       91250.0000                 WELLS =         250.0000
     HEAD DEP BOUNDS =   123258608.0000       HEAD DEP BOUNDS =        1531.7257
          SWIADDTOCH =           0.0000            SWIADDTOCH =           0.0000

           TOTAL OUT =   123349856.0000             TOTAL OUT =        1781.7257

            IN - OUT =        9280.0000              IN - OUT =          -0.3096

 PERCENT DISCREPANCY =           0.01     PERCENT DISCREPANCY =          -0.02






         TIME SUMMARY AT END OF TIME STEP   10 IN STRESS PERIOD    2
                    SECONDS     MINUTES      HOURS       DAYS        YEARS
                    -----------------------------------------------------------
   TIME STEP LENGTH 3.15360E+06  52560.      876.00      36.500     9.99316E-02
 STRESS PERIOD TIME 3.15360E+07 5.25600E+05  8760.0      365.00     0.99932    
         TOTAL TIME 6.33874E+09 1.05646E+08 1.76076E+06  73365.      200.86    
1
 
 SOLVING FOR HEAD 
                                                   Max.-Head-Change                         Max.-Flux-Residual
  Residual-Control   Outer-Iter.   Inner-Iter.     Column Row Layer    Maximum-Head-Change  Column Row Layer    Maximum-Flux-Residual          L2-NORM 
          0                 1           1            36   31     2      -0.1326779678E-02      36   31    2        -0.4520897269E+00      0.1782335837E+01
          0                 2           1            34   32     2      -0.1078181604E-03      39   29    2        -0.1910914117E-01      0.9230771029E-01
          0                 3           1            37   31     2      -0.6600742267E-04      37   31    2        -0.5090041150E-02      0.3684004097E-01
          0                 4           1            41   31     2      -0.2838996953E-04      39   29    2        -0.2611769926E-02      0.2476342157E-01
          0                 5           1            42   31     1      -0.3275482319E-04      37   31    2        -0.1845736274E-02      0.1999662538E-01
          0                 6           1            39   29     2      -0.1823496936E-04      39   29    2        -0.1522939762E-02      0.1719358311E-01
          0                 7           1            37   31     2      -0.2527633872E-04      37   31    2        -0.1270165191E-02      0.1485066622E-01
          0                 8           1            34   32     2      -0.1313725814E-04      33   31    2        -0.1125932866E-02      0.1327606799E-01
          0                 9           1            37   31     2      -0.1982576271E-04      37   31    2        -0.9790645584E-03      0.1158922719E-01
          0                10           1            34   32     2      -0.1073972394E-04      33   31    2        -0.9098935545E-03      0.1050666244E-01
                                                   Max.-Head-Change                         Max.-Flux-Residual
  Residual-Control   Outer-Iter.   Inner-Iter.     Column Row Layer    Maximum-Head-Change  Column Row Layer    Maximum-Flux-Residual          L2-NORM 
          0                11           1            37   31     2      -0.1525936510E-04      37   31    2        -0.7754361775E-03      0.9227967379E-02
          0                12           1            34   32     2      -0.8799786734E-05      33   31    2        -0.7327137591E-03      0.8417702072E-02

    ------------------------------------------------
       NWT REQUIRED           12 OUTER ITERATIONS 
       AND A TOTAL OF         12 INNER ITERATIONS.
    ------------------------------------------------

 OUTPUT CONTROL FOR STRESS PERIOD    2   TIME STEP   11
    SAVE HEAD FOR ALL LAYERS
 SOLVING FOR ZETA FOR LAYER     1 ZONE     2

     648 UPPER PART EQS.       652 LOWER PART EQS.    BAND WIDTH + 1 =   29
 STRESS PERIOD=  2 TIMESTEP= 11 LAYER=  1 ZONE=  2 ACTIVE CELLS= 1300 NUMBER OF EQUATIONS=    1300
 SOLVING FOR ZETA FOR LAYER     2 ZONE     2

     629 UPPER PART EQS.       636 LOWER PART EQS.    BAND WIDTH + 1 =   36
 STRESS PERIOD=  2 TIMESTEP= 11 LAYER=  2 ZONE=  2 ACTIVE CELLS= 1265 NUMBER OF EQUATIONS=    1265
 UBUDSV SAVING "      ZETASRF  1" ON UNIT 55 AT TIME STEP 11, STRESS PERIOD    2

 HEAD WILL BE SAVED ON UNIT   51 AT END OF TIME STEP   11, STRESS PERIOD    2
 
 SOLVING FOR HEAD 
                                                   Max.-Head-Change                         Max.-Flux-Residual
  Residual-Control   Outer-Iter.   Inner-Iter.     Column Row Layer    Maximum-Head-Change  Column Row Layer    Maximum-Flux-Residual          L2-NORM 
          0                 1           1            36   31     2      -0.1267887047E-02      36   31    2        -0.4224404693E+00      0.1834076255E+01
          0                 2           1            34   32     2      -0.1060140900E-03      39   29    2        -0.1863006880E-01      0.9186884348E-01
          0                 3           1            37   31     2      -0.6735805762E-04      37   31    2        -0.5054181776E-02      0.4109537228E-01
          0                 4           1            39   29     2      -0.3453294522E-04      39   29    2        -0.2598362213E-02      0.3197662990E-01
          0                 5           1            37   31     2      -0.3841099490E-04      37   31    2        -0.2239120988E-02      0.2798284435E-01
          0                 6           1            34   32     2      -0.2464060519E-04      39   29    2        -0.1879597511E-02      0.2497085930E-01
          0                 7           1            37   31     2      -0.3251295240E-04      37   31    2        -0.1762077191E-02      0.2229363700E-01
          0                 8           1            34   32     2      -0.2073893003E-04      33   31    2        -0.1602188556E-02      0.2017325091E-01
          0                 9           1            37   31     2      -0.2678232545E-04      37   31    2        -0.1448569179E-02      0.1803575344E-01
          0                10           1            33   31     2      -0.1733642301E-04      33   31    2        -0.1343214155E-02      0.1637302695E-01
                                                   Max.-Head-Change                         Max.-Flux-Residual
  Residual-Control   Outer-Iter.   Inner-Iter.     Column Row Layer    Maximum-Head-Change  Column Row Layer    Maximum-Flux-Residual          L2-NORM 
          0                11           1            37   31     2      -0.2153853296E-04      37   31    2        -0.1188511826E-02      0.1464902547E-01
          0                12           1            33   31     2      -0.1435857719E-04      33   31    2        -0.1108218321E-02      0.1330998901E-01
          0                13           1            37   31     2      -0.1718987483E-04      37   31    2        -0.9711507864E-03      0.1192373928E-01
          0                14           1            33   31     2      -0.1184542223E-04      33   31    2        -0.9066540844E-03      0.1083630459E-01
          0                15           1            37   31     2      -0.1370188733E-04      37   31    2        -0.7911229377E-03      0.9721428231E-02
          0                16           1            33   31     2      -0.9756842505E-05      35   33    2        -0.7427183418E-03      0.8834948547E-02

    ------------------------------------------------
       NWT REQUIRED           16 OUTER ITERATIONS 
       AND A TOTAL OF         16 INNER ITERATIONS.
    ------------------------------------------------

 OUTPUT CONTROL FOR STRESS PERIOD    2   TIME STEP   12
    SAVE HEAD FOR ALL LAYERS
 SOLVING FOR ZETA FOR LAYER     1 ZONE     2

     646 UPPER PART EQS.       641 LOWER PART EQS.    BAND WIDTH + 1 =   27
 STRESS PERIOD=  2 TIMESTEP= 12 LAYER=  1 ZONE=  2 ACTIVE CELLS= 1287 NUMBER OF EQUATIONS=    1287
 SOLVING FOR ZETA FOR LAYER     2 ZONE     2

     629 UPPER PART EQS.       636 LOWER PART EQS.    BAND WIDTH + 1 =   36
 STRESS PERIOD=  2 TIMESTEP= 12 LAYER=  2 ZONE=  2 ACTIVE CELLS= 1265 NUMBER OF EQUATIONS=    1265
 UBUDSV SAVING "      ZETASRF  1" ON UNIT 55 AT TIME STEP 12, STRESS PERIOD    2

 HEAD WILL BE SAVED ON UNIT   51 AT END OF TIME STEP   12, STRESS PERIOD    2
 
 SOLVING FOR HEAD 
                                                   Max.-Head-Change                         Max.-Flux-Residual
  Residual-Control   Outer-Iter.   Inner-Iter.     Column Row Layer    Maximum-Head-Change  Column Row Layer    Maximum-Flux-Residual          L2-NORM 
          0                 1           1            36   31     2      -0.1217960725E-02      33   48    1        -0.4200324435E+00      0.2160506813E+01
          0                 2           1            34   32     2      -0.1020324400E-03      39   29    2        -0.1822592469E-01      0.9027474693E-01
          0                 3           1            37   31     2      -0.6804165587E-04      37   31    2        -0.5085471681E-02      0.3605271365E-01
          0                 4           1            41   31     2      -0.2957981902E-04      39   29    2        -0.2294728073E-02      0.2591832001E-01
          0                 5           1            37   31     2      -0.3428346094E-04      37   31    2        -0.1906329743E-02      0.2164311416E-01
          0                 6           1            39   29     2      -0.1972906899E-04      39   29    2        -0.1501460867E-02      0.1894043069E-01
          0                 7           1            37   31     2      -0.2679220770E-04      37   31    2        -0.1366216723E-02      0.1656481295E-01
          0                 8           1            34   32     2      -0.1501462356E-04      34   34    2        -0.1188227928E-02      0.1488407242E-01
          0                 9           1            37   31     2      -0.2105894088E-04      37   31    2        -0.1073530989E-02      0.1312191089E-01
          0                10           1            34   32     2      -0.1236375072E-04      33   31    2        -0.9636821098E-03      0.1190143101E-01
                                                   Max.-Head-Change                         Max.-Flux-Residual
  Residual-Control   Outer-Iter.   Inner-Iter.     Column Row Layer    Maximum-Head-Change  Column Row Layer    Maximum-Flux-Residual          L2-NORM 
          0                11           1            37   31     2      -0.1631093829E-04      37   31    2        -0.8601785253E-03      0.1054519329E-01
          0                12           1            33   31     2      -0.1020035619E-04      33   31    2        -0.7817373422E-03      0.9602957028E-02
          0                13           1            37   31     2      -0.1263077807E-04      37   31    2        -0.6946624706E-03      0.8545328335E-02
          0                14           1            33   31     2      -0.8449893610E-05      35   33    2        -0.6350432418E-03      0.7794151687E-02

    ------------------------------------------------
       NWT REQUIRED           14 OUTER ITERATIONS 
       AND A TOTAL OF         14 INNER ITERATIONS.
    ------------------------------------------------

 OUTPUT CONTROL FOR STRESS PERIOD    2   TIME STEP   13
    SAVE HEAD FOR ALL LAYERS
 SOLVING FOR ZETA FOR LAYER     1 ZONE     2

     642 UPPER PART EQS.       644 LOWER PART EQS.    BAND WIDTH + 1 =   28
 STRESS PERIOD=  2 TIMESTEP= 13 LAYER=  1 ZONE=  2 ACTIVE CELLS= 1286 NUMBER OF EQUATIONS=    1286
 SOLVING FOR ZETA FOR LAYER     2 ZONE     2

     629 UPPER PART EQS.       636 LOWER PART EQS.    BAND WIDTH + 1 =   36
 STRESS PERIOD=  2 TIMESTEP= 13 LAYER=  2 ZONE=  2 ACTIVE CELLS= 1265 NUMBER OF EQUATIONS=    1265
 UBUDSV SAVING "      ZETASRF  1" ON UNIT 55 AT TIME STEP 13, STRESS PERIOD    2

 HEAD WILL BE SAVED ON UNIT   51 AT END OF TIME STEP   13, STRESS PERIOD    2
 
 SOLVING FOR HEAD 
                                                   Max.-Head-Change                         Max.-Flux-Residual
  Residual-Control   Outer-Iter.   Inner-Iter.     Column Row Layer    Maximum-Head-Change  Column Row Layer    Maximum-Flux-Residual          L2-NORM 
          0                 1           1            36   31     2      -0.1172019792E-02      33   48    1         0.4184226529E+00      0.1936201746E+01
          0                 2           1            34   32     2      -0.1002271115E-03      39   29    2        -0.1776763959E-01      0.8547929302E-01
          0                 3           1            37   31     2      -0.6524378783E-04      37   31    2        -0.4959414392E-02      0.3337198632E-01
          0                 4           1            41   31     2      -0.2736068483E-04      39   29    2        -0.2241326205E-02      0.2295688985E-01
          0                 5           1            37   31     2      -0.3145744211E-04      37   31    2        -0.1774798581E-02      0.1892499828E-01
          0                 6           1            39   29     2      -0.1750484181E-04      39   29    2        -0.1390594272E-02      0.1638472455E-01
          0                 7           1            37   31     2      -0.2423574494E-04      37   31    2        -0.1220899933E-02      0.1426676924E-01
          0                 8           1            34   32     2      -0.1281946369E-04      33   31    2        -0.1062148595E-02      0.1275972370E-01
          0                 9           1            37   31     2      -0.1894773009E-04      37   31    2        -0.9387515953E-03      0.1119838404E-01
          0                10           1            34   32     2      -0.1043711171E-04      33   31    2        -0.8603450540E-03      0.1014121587E-01
                                                   Max.-Head-Change                         Max.-Flux-Residual
  Residual-Control   Outer-Iter.   Inner-Iter.     Column Row Layer    Maximum-Head-Change  Column Row Layer    Maximum-Flux-Residual          L2-NORM 
          0                11           1            37   31     2      -0.1456321145E-04      37   31    2        -0.7426453639E-03      0.8943888639E-02
          0                12           1            34   32     2      -0.8547518521E-05      33   31    2        -0.6924666529E-03      0.8147638826E-02

    ------------------------------------------------
       NWT REQUIRED           12 OUTER ITERATIONS 
       AND A TOTAL OF         12 INNER ITERATIONS.
    ------------------------------------------------

 OUTPUT CONTROL FOR STRESS PERIOD    2   TIME STEP   14
    SAVE HEAD FOR ALL LAYERS
 SOLVING FOR ZETA FOR LAYER     1 ZONE     2

     650 UPPER PART EQS.       652 LOWER PART EQS.    BAND WIDTH + 1 =   27
 STRESS PERIOD=  2 TIMESTEP= 14 LAYER=  1 ZONE=  2 ACTIVE CELLS= 1302 NUMBER OF EQUATIONS=    1302
 SOLVING FOR ZETA FOR LAYER     2 ZONE     2

     629 UPPER PART EQS.       636 LOWER PART EQS.    BAND WIDTH + 1 =   36
 STRESS PERIOD=  2 TIMESTEP= 14 LAYER=  2 ZONE=  2 ACTIVE CELLS= 1265 NUMBER OF EQUATIONS=    1265
 UBUDSV SAVING "      ZETASRF  1" ON UNIT 55 AT TIME STEP 14, STRESS PERIOD    2

 HEAD WILL BE SAVED ON UNIT   51 AT END OF TIME STEP   14, STRESS PERIOD    2
 
 SOLVING FOR HEAD 
                                                   Max.-Head-Change                         Max.-Flux-Residual
  Residual-Control   Outer-Iter.   Inner-Iter.     Column Row Layer    Maximum-Head-Change  Column Row Layer    Maximum-Flux-Residual          L2-NORM 
          0                 1           1            36   31     2      -0.1131309926E-02      28   48    1        -0.4561157008E+00      0.1853668188E+01
          0                 2           1            34   32     2      -0.1010546808E-03      39   29    2        -0.1738324649E-01      0.8096370805E-01
          0                 3           1            37   31     2      -0.6473365220E-04      37   31    2        -0.4894599949E-02      0.3484648015E-01
          0                 4           1            39   29     2      -0.3198707394E-04      39   29    2        -0.2414627570E-02      0.2635407774E-01
          0                 5           1            37   31     2      -0.3453659569E-04      37   31    2        -0.2045646545E-02      0.2272015010E-01
          0                 6           1            39   29     2      -0.2154381293E-04      39   29    2        -0.1644675154E-02      0.2008597054E-01
          0                 7           1            37   31     2      -0.2782545170E-04      37   31    2        -0.1535893148E-02      0.1783191896E-01
          0                 8           1            34   32     2      -0.1716373788E-04      33   31    2        -0.1343946462E-02      0.1604262200E-01
          0                 9           1            37   31     2      -0.2247617511E-04      37   31    2        -0.1232056607E-02      0.1430150292E-01
          0                10           1            33   31     2      -0.1409204349E-04      33   31    2        -0.1119890977E-02      0.1293918427E-01
                                                   Max.-Head-Change                         Max.-Flux-Residual
  Residual-Control   Outer-Iter.   Inner-Iter.     Column Row Layer    Maximum-Head-Change  Column Row Layer    Maximum-Flux-Residual          L2-NORM 
          0                11           1            37   31     2      -0.1783439169E-04      37   31    2        -0.9989122964E-03      0.1155800904E-01
          0                12           1            33   31     2      -0.1164540477E-04      33   31    2        -0.9213574363E-03      0.1048283528E-01
          0                13           1            37   31     2      -0.1406946056E-04      37   31    2        -0.8123951442E-03      0.9382446104E-02
          0                14           1            33   31     2      -0.9617707539E-05      33   31    2        -0.7530308919E-03      0.8519950112E-02

    ------------------------------------------------
       NWT REQUIRED           14 OUTER ITERATIONS 
       AND A TOTAL OF         14 INNER ITERATIONS.
    ------------------------------------------------

 OUTPUT CONTROL FOR STRESS PERIOD    2   TIME STEP   15
    SAVE HEAD FOR ALL LAYERS
 SOLVING FOR ZETA FOR LAYER     1 ZONE     2

     648 UPPER PART EQS.       650 LOWER PART EQS.    BAND WIDTH + 1 =   26
 STRESS PERIOD=  2 TIMESTEP= 15 LAYER=  1 ZONE=  2 ACTIVE CELLS= 1298 NUMBER OF EQUATIONS=    1298
 SOLVING FOR ZETA FOR LAYER     2 ZONE     2

     629 UPPER PART EQS.       636 LOWER PART EQS.    BAND WIDTH + 1 =   36
 STRESS PERIOD=  2 TIMESTEP= 15 LAYER=  2 ZONE=  2 ACTIVE CELLS= 1265 NUMBER OF EQUATIONS=    1265
 UBUDSV SAVING "      ZETASRF  1" ON UNIT 55 AT TIME STEP 15, STRESS PERIOD    2

 HEAD WILL BE SAVED ON UNIT   51 AT END OF TIME STEP   15, STRESS PERIOD    2
 
 SOLVING FOR HEAD 
                                                   Max.-Head-Change                         Max.-Flux-Residual
  Residual-Control   Outer-Iter.   Inner-Iter.     Column Row Layer    Maximum-Head-Change  Column Row Layer    Maximum-Flux-Residual          L2-NORM 
          0                 1           1            36   31     2      -0.1094677964E-02      28   48    1         0.4527191603E+00      0.2236372150E+01
          0                 2           1            34   32     2      -0.9827872921E-04      39   29    2        -0.1698548965E-01      0.9264172648E-01
          0                 3           1            37   31     2      -0.6424258282E-04      37   31    2        -0.4851690931E-02      0.3783293540E-01
          0                 4           1            39   29     2      -0.2971229551E-04      39   29    2        -0.2478643019E-02      0.2781510638E-01
          0                 5           1            37   31     2      -0.3475901124E-04      37   31    2        -0.1879905727E-02      0.2387657125E-01
          0                 6           1            34   32     2      -0.2020196448E-04      39   29    2        -0.1673108233E-02      0.2126529724E-01
          0                 7           1            37   31     2      -0.2889477652E-04      37   31    2        -0.1414822550E-02      0.1886015076E-01
          0                 8           1            33   31     2      -0.1673314773E-04      33   31    2        -0.1457963755E-02      0.1710227510E-01
          0                 9           1            37   31     2      -0.2382933958E-04      37   31    2        -0.1149021867E-02      0.1517241526E-01
          0                10           1            33   31     2      -0.1379547514E-04      33   31    2        -0.1232341489E-02      0.1380734849E-01
                                                   Max.-Head-Change                         Max.-Flux-Residual
  Residual-Control   Outer-Iter.   Inner-Iter.     Column Row Layer    Maximum-Head-Change  Column Row Layer    Maximum-Flux-Residual          L2-NORM 
          0                11           1            37   31     2      -0.1916041359E-04      37   31    2        -0.9358162509E-03      0.1224526159E-01
          0                12           1            33   31     2      -0.1130331801E-04      33   31    2        -0.1018322829E-02      0.1115218039E-01
          0                13           1            37   31     2      -0.1524337409E-04      37   31    2        -0.7603791355E-03      0.9899050048E-02
          0                14           1            33   31     2      -0.9248961304E-05      33   31    2        -0.8310474542E-03      0.9017273336E-02

    ------------------------------------------------
       NWT REQUIRED           14 OUTER ITERATIONS 
       AND A TOTAL OF         14 INNER ITERATIONS.
    ------------------------------------------------

 OUTPUT CONTROL FOR STRESS PERIOD    2   TIME STEP   16
    SAVE HEAD FOR ALL LAYERS
 SOLVING FOR ZETA FOR LAYER     1 ZONE     2

     646 UPPER PART EQS.       647 LOWER PART EQS.    BAND WIDTH + 1 =   25
 STRESS PERIOD=  2 TIMESTEP= 16 LAYER=  1 ZONE=  2 ACTIVE CELLS= 1293 NUMBER OF EQUATIONS=    1293
 SOLVING FOR ZETA FOR LAYER     2 ZONE     2

     629 UPPER PART EQS.       636 LOWER PART EQS.    BAND WIDTH + 1 =   36
 STRESS PERIOD=  2 TIMESTEP= 16 LAYER=  2 ZONE=  2 ACTIVE CELLS= 1265 NUMBER OF EQUATIONS=    1265
 UBUDSV SAVING "      ZETASRF  1" ON UNIT 55 AT TIME STEP 16, STRESS PERIOD    2

 HEAD WILL BE SAVED ON UNIT   51 AT END OF TIME STEP   16, STRESS PERIOD    2
 
 SOLVING FOR HEAD 
                                                   Max.-Head-Change                         Max.-Flux-Residual
  Residual-Control   Outer-Iter.   Inner-Iter.     Column Row Layer    Maximum-Head-Change  Column Row Layer    Maximum-Flux-Residual          L2-NORM 
          0                 1           1            36   31     2      -0.1060697962E-02      14   34    1         0.4395762974E+00      0.2050547234E+01
          0                 2           1            34   32     2      -0.9626708673E-04      39   29    2        -0.1656978405E-01      0.8903755116E-01
          0                 3           1            37   31     2      -0.6438223867E-04      37   31    2        -0.4755180365E-02      0.3312099393E-01
          0                 4           1            41   31     2      -0.2624602022E-04      39   29    2        -0.2572376266E-02      0.2127962398E-01
          0                 5           1            37   31     2      -0.2804545762E-04      37   31    2        -0.1611269503E-02      0.1646987444E-01
          0                 6           1            41   31     2      -0.1579811163E-04      39   29    2        -0.1466168354E-02      0.1370012887E-01
          0                 7           1            37   31     2      -0.1987576951E-04      37   31    2        -0.1029271943E-02      0.1144825906E-01
          0                 8           1            39   29     2      -0.1049176113E-04      39   29    2        -0.9985334650E-03      0.9951965386E-02
          0                 9           1            37   31     2      -0.1499815301E-04      37   31    2        -0.7478815650E-03      0.8469961243E-02
          0                10           1            34   32     2      -0.7751698716E-05      39   29    2        -0.7084715164E-03      0.7546551551E-02

    ------------------------------------------------
       NWT REQUIRED           10 OUTER ITERATIONS 
       AND A TOTAL OF         10 INNER ITERATIONS.
    ------------------------------------------------

 OUTPUT CONTROL FOR STRESS PERIOD    2   TIME STEP   17
    SAVE HEAD FOR ALL LAYERS
 SOLVING FOR ZETA FOR LAYER     1 ZONE     2

     644 UPPER PART EQS.       660 LOWER PART EQS.    BAND WIDTH + 1 =   38
 STRESS PERIOD=  2 TIMESTEP= 17 LAYER=  1 ZONE=  2 ACTIVE CELLS= 1304 NUMBER OF EQUATIONS=    1304
 SOLVING FOR ZETA FOR LAYER     2 ZONE     2

     629 UPPER PART EQS.       636 LOWER PART EQS.    BAND WIDTH + 1 =   36
 STRESS PERIOD=  2 TIMESTEP= 17 LAYER=  2 ZONE=  2 ACTIVE CELLS= 1265 NUMBER OF EQUATIONS=    1265
 UBUDSV SAVING "      ZETASRF  1" ON UNIT 55 AT TIME STEP 17, STRESS PERIOD    2

 HEAD WILL BE SAVED ON UNIT   51 AT END OF TIME STEP   17, STRESS PERIOD    2
 
 SOLVING FOR HEAD 
                                                   Max.-Head-Change                         Max.-Flux-Residual
  Residual-Control   Outer-Iter.   Inner-Iter.     Column Row Layer    Maximum-Head-Change  Column Row Layer    Maximum-Flux-Residual          L2-NORM 
          0                 1           1            36   31     2      -0.1030535455E-02      14   33    1        -0.4168292081E+00      0.1293080728E+01
          0                 2           1            34   32     2      -0.9795058003E-04      39   29    2        -0.1621747782E-01      0.7442175764E-01
          0                 3           1            37   31     2      -0.5886463944E-04      37   31    2        -0.4555712869E-02      0.3178140414E-01
          0                 4           1            39   29     2      -0.2911001498E-04      39   29    2        -0.2784104744E-02      0.2337878045E-01
          0                 5           1            37   31     2      -0.3144510895E-04      37   31    2        -0.1789965270E-02      0.1998301564E-01
          0                 6           1            39   29     2      -0.1854321006E-04      39   29    2        -0.1745840876E-02      0.1775916172E-01
          0                 7           1            37   31     2      -0.2503060866E-04      37   31    2        -0.1306080810E-02      0.1569594667E-01
          0                 8           1            34   32     2      -0.1466980586E-04      39   29    2        -0.1302583204E-02      0.1421983515E-01
          0                 9           1            37   31     2      -0.2018446515E-04      37   31    2        -0.1040878711E-02      0.1258811945E-01
          0                10           1            33   31     2      -0.1196794111E-04      33   31    2        -0.1050425242E-02      0.1146395365E-01
                                                   Max.-Head-Change                         Max.-Flux-Residual
  Residual-Control   Outer-Iter.   Inner-Iter.     Column Row Layer    Maximum-Head-Change  Column Row Layer    Maximum-Flux-Residual          L2-NORM 
          0                11           1            37   31     2      -0.1601467324E-04      37   31    2        -0.8402337714E-03      0.1015904686E-01
          0                12           1            33   31     2      -0.9826129652E-05      33   31    2        -0.8626818673E-03      0.9267041656E-02

    ------------------------------------------------
       NWT REQUIRED           12 OUTER ITERATIONS 
       AND A TOTAL OF         12 INNER ITERATIONS.
    ------------------------------------------------

 OUTPUT CONTROL FOR STRESS PERIOD    2   TIME STEP   18
    SAVE HEAD FOR ALL LAYERS
 SOLVING FOR ZETA FOR LAYER     1 ZONE     2

     650 UPPER PART EQS.       654 LOWER PART EQS.    BAND WIDTH + 1 =   26
 STRESS PERIOD=  2 TIMESTEP= 18 LAYER=  1 ZONE=  2 ACTIVE CELLS= 1304 NUMBER OF EQUATIONS=    1304
 SOLVING FOR ZETA FOR LAYER     2 ZONE     2

     629 UPPER PART EQS.       636 LOWER PART EQS.    BAND WIDTH + 1 =   36
 STRESS PERIOD=  2 TIMESTEP= 18 LAYER=  2 ZONE=  2 ACTIVE CELLS= 1265 NUMBER OF EQUATIONS=    1265
 UBUDSV SAVING "      ZETASRF  1" ON UNIT 55 AT TIME STEP 18, STRESS PERIOD    2

 HEAD WILL BE SAVED ON UNIT   51 AT END OF TIME STEP   18, STRESS PERIOD    2
 
 SOLVING FOR HEAD 
                                                   Max.-Head-Change                         Max.-Flux-Residual
  Residual-Control   Outer-Iter.   Inner-Iter.     Column Row Layer    Maximum-Head-Change  Column Row Layer    Maximum-Flux-Residual          L2-NORM 
          0                 1           1            36   31     2      -0.1004733127E-02      14   33    1         0.4121804926E+00      0.1387600964E+01
          0                 2           1            34   32     2      -0.9690320057E-04      39   29    2        -0.1593923226E-01      0.7397493061E-01
          0                 3           1            37   31     2      -0.6184259683E-04      37   31    2        -0.4598452725E-02      0.3063766057E-01
          0                 4           1            39   29     2      -0.2858277178E-04      39   29    2        -0.2779726421E-02      0.2177388307E-01
          0                 5           1            37   31     2      -0.3060644752E-04      37   31    2        -0.1772334591E-02      0.1796857702E-01
          0                 6           1            39   29     2      -0.1780641893E-04      39   29    2        -0.1677366047E-02      0.1564512046E-01
          0                 7           1            37   31     2      -0.2286592490E-04      37   31    2        -0.1228462640E-02      0.1356371469E-01
          0                 8           1            34   32     2      -0.1283906064E-04      39   29    2        -0.1198132174E-02      0.1215591803E-01
          0                 9           1            37   31     2      -0.1771401964E-04      37   31    2        -0.9402307130E-03      0.1063674413E-01
          0                10           1            34   32     2      -0.1031329252E-04      33   31    2        -0.8996163875E-03      0.9653271358E-02
                                                   Max.-Head-Change                         Max.-Flux-Residual
  Residual-Control   Outer-Iter.   Inner-Iter.     Column Row Layer    Maximum-Head-Change  Column Row Layer    Maximum-Flux-Residual          L2-NORM 
          0                11           1            37   31     2      -0.1356267048E-04      37   31    2        -0.7421906614E-03      0.8497470309E-02
          0                12           1            34   32     2      -0.8438631708E-05      33   31    2        -0.7220755099E-03      0.7758877163E-02

    ------------------------------------------------
       NWT REQUIRED           12 OUTER ITERATIONS 
       AND A TOTAL OF         12 INNER ITERATIONS.
    ------------------------------------------------

 OUTPUT CONTROL FOR STRESS PERIOD    2   TIME STEP   19
    SAVE HEAD FOR ALL LAYERS
 SOLVING FOR ZETA FOR LAYER     1 ZONE     2

     652 UPPER PART EQS.       662 LOWER PART EQS.    BAND WIDTH + 1 =   31
 STRESS PERIOD=  2 TIMESTEP= 19 LAYER=  1 ZONE=  2 ACTIVE CELLS= 1314 NUMBER OF EQUATIONS=    1314
 SOLVING FOR ZETA FOR LAYER     2 ZONE     2

     629 UPPER PART EQS.       636 LOWER PART EQS.    BAND WIDTH + 1 =   36
 STRESS PERIOD=  2 TIMESTEP= 19 LAYER=  2 ZONE=  2 ACTIVE CELLS= 1265 NUMBER OF EQUATIONS=    1265
 UBUDSV SAVING "      ZETASRF  1" ON UNIT 55 AT TIME STEP 19, STRESS PERIOD    2

 HEAD WILL BE SAVED ON UNIT   51 AT END OF TIME STEP   19, STRESS PERIOD    2
 
 SOLVING FOR HEAD 
                                                   Max.-Head-Change                         Max.-Flux-Residual
  Residual-Control   Outer-Iter.   Inner-Iter.     Column Row Layer    Maximum-Head-Change  Column Row Layer    Maximum-Flux-Residual          L2-NORM 
          0                 1           1            36   31     2      -0.9801153134E-03      29   48    1        -0.4474924699E+00      0.1640516884E+01
          0                 2           1            34   32     2      -0.9391486018E-04      39   29    2        -0.1561519258E-01      0.8200235554E-01
          0                 3           1            37   31     2      -0.5927134309E-04      37   31    2        -0.4587692553E-02      0.3451813321E-01
          0                 4           1            39   29     2      -0.3301907375E-04      39   29    2        -0.2619684253E-02      0.2679944995E-01
          0                 5           1            37   31     2      -0.3252455032E-04      37   31    2        -0.1945101825E-02      0.2355399353E-01
          0                 6           1            34   32     2      -0.2260251557E-04      39   29    2        -0.1780310248E-02      0.2111275414E-01
          0                 7           1            37   31     2      -0.2652739984E-04      37   31    2        -0.1503866498E-02      0.1886769497E-01
          0                 8           1            34   32     2      -0.1824384814E-04      39   29    2        -0.1384862223E-02      0.1710846760E-01
          0                 9           1            37   31     2      -0.2189053566E-04      37   31    2        -0.1218046223E-02      0.1529328911E-01
          0                10           1            33   31     2      -0.1487798905E-04      33   31    2        -0.1155954272E-02      0.1392057989E-01
                                                   Max.-Head-Change                         Max.-Flux-Residual
  Residual-Control   Outer-Iter.   Inner-Iter.     Column Row Layer    Maximum-Head-Change  Column Row Layer    Maximum-Flux-Residual          L2-NORM 
          0                11           1            37   31     2      -0.1778862844E-04      37   31    2        -0.9885734544E-03      0.1243676051E-01
          0                12           1            33   31     2      -0.1216907909E-04      33   31    2        -0.9593340235E-03      0.1133771253E-01
          0                13           1            37   31     2      -0.1430719250E-04      37   31    2        -0.8013376276E-03      0.1013035658E-01
          0                14           1            33   31     2      -0.9965749631E-05      33   31    2        -0.7870636896E-03      0.9240709293E-02

    ------------------------------------------------
       NWT REQUIRED           14 OUTER ITERATIONS 
       AND A TOTAL OF         14 INNER ITERATIONS.
    ------------------------------------------------

 OUTPUT CONTROL FOR STRESS PERIOD    2   TIME STEP   20
    SAVE HEAD FOR ALL LAYERS
 SOLVING FOR ZETA FOR LAYER     1 ZONE     2

     650 UPPER PART EQS.       649 LOWER PART EQS.    BAND WIDTH + 1 =   28
 STRESS PERIOD=  2 TIMESTEP= 20 LAYER=  1 ZONE=  2 ACTIVE CELLS= 1299 NUMBER OF EQUATIONS=    1299
 SOLVING FOR ZETA FOR LAYER     2 ZONE     2

     629 UPPER PART EQS.       636 LOWER PART EQS.    BAND WIDTH + 1 =   36
 STRESS PERIOD=  2 TIMESTEP= 20 LAYER=  2 ZONE=  2 ACTIVE CELLS= 1265 NUMBER OF EQUATIONS=    1265
 UBUDSV SAVING "      ZETASRF  1" ON UNIT 55 AT TIME STEP 20, STRESS PERIOD    2

 HEAD WILL BE SAVED ON UNIT   51 AT END OF TIME STEP   20, STRESS PERIOD    2
 
 SOLVING FOR HEAD 
                                                   Max.-Head-Change                         Max.-Flux-Residual
  Residual-Control   Outer-Iter.   Inner-Iter.     Column Row Layer    Maximum-Head-Change  Column Row Layer    Maximum-Flux-Residual          L2-NORM 
          0                 1           1            36   31     2      -0.9590479989E-03      29   48    1         0.4437878782E+00      0.1827731997E+01
          0                 2           1            34   32     2      -0.9196821502E-04      39   29    2        -0.1539123025E-01      0.8044188608E-01
          0                 3           1            37   31     2      -0.6264381185E-04      37   31    2        -0.4616868263E-02      0.3044218985E-01
          0                 4           1            39   29     2      -0.2657812364E-04      39   29    2        -0.2592335993E-02      0.2016211274E-01
          0                 5           1            37   31     2      -0.2801773721E-04      37   31    2        -0.1635329472E-02      0.1619429978E-01
          0                 6           1            39   29     2      -0.1655417724E-04      39   29    2        -0.1454576511E-02      0.1403149208E-01
          0                 7           1            37   31     2      -0.1980665057E-04      37   31    2        -0.1096593443E-02      0.1221065619E-01
          0                 8           1            34   32     2      -0.1194212394E-04      39   29    2        -0.1013362244E-02      0.1098132862E-01
          0                 9           1            37   31     2      -0.1505855746E-04      37   31    2        -0.8397816775E-03      0.9683554482E-02
          0                10           1            34   32     2      -0.9661000260E-05      33   31    2        -0.7553684533E-03      0.8803117242E-02

    ------------------------------------------------
       NWT REQUIRED           10 OUTER ITERATIONS 
       AND A TOTAL OF         10 INNER ITERATIONS.
    ------------------------------------------------

 OUTPUT CONTROL FOR STRESS PERIOD    2   TIME STEP   21
    SAVE HEAD FOR ALL LAYERS
 SOLVING FOR ZETA FOR LAYER     1 ZONE     2

     642 UPPER PART EQS.       660 LOWER PART EQS.    BAND WIDTH + 1 =   39
 STRESS PERIOD=  2 TIMESTEP= 21 LAYER=  1 ZONE=  2 ACTIVE CELLS= 1302 NUMBER OF EQUATIONS=    1302
 SOLVING FOR ZETA FOR LAYER     2 ZONE     2

     629 UPPER PART EQS.       636 LOWER PART EQS.    BAND WIDTH + 1 =   36
 STRESS PERIOD=  2 TIMESTEP= 21 LAYER=  2 ZONE=  2 ACTIVE CELLS= 1265 NUMBER OF EQUATIONS=    1265
 UBUDSV SAVING "      ZETASRF  1" ON UNIT 55 AT TIME STEP 21, STRESS PERIOD    2

 HEAD WILL BE SAVED ON UNIT   51 AT END OF TIME STEP   21, STRESS PERIOD    2
 
 SOLVING FOR HEAD 
                                                   Max.-Head-Change                         Max.-Flux-Residual
  Residual-Control   Outer-Iter.   Inner-Iter.     Column Row Layer    Maximum-Head-Change  Column Row Layer    Maximum-Flux-Residual          L2-NORM 
          0                 1           1            36   31     2      -0.9358208619E-03      14   32    1         0.4024926755E+00      0.1226674791E+01
          0                 2           1            34   32     2      -0.9350587146E-04      39   29    2        -0.1501457395E-01      0.7004119458E-01
          0                 3           1            37   31     2      -0.5698479306E-04      37   31    2        -0.4343320104E-02      0.2846822986E-01
          0                 4           1            39   29     2      -0.2681107600E-04      39   29    2        -0.2541538046E-02      0.1987844736E-01
          0                 5           1            37   31     2      -0.2735469646E-04      37   31    2        -0.1611314941E-02      0.1640200774E-01
          0                 6           1            39   29     2      -0.1665005978E-04      39   29    2        -0.1466887095E-02      0.1439142867E-01
          0                 7           1            37   31     2      -0.1986462038E-04      37   31    2        -0.1121053932E-02      0.1252713412E-01
          0                 8           1            34   32     2      -0.1231365495E-04      39   29    2        -0.1040360435E-02      0.1128599223E-01
          0                 9           1            37   31     2      -0.1529162331E-04      37   31    2        -0.8731979038E-03      0.9920463684E-02
          0                10           1            34   32     2      -0.9981215805E-05      33   31    2        -0.7951744849E-03      0.9022255182E-02

    ------------------------------------------------
       NWT REQUIRED           10 OUTER ITERATIONS 
       AND A TOTAL OF         10 INNER ITERATIONS.
    ------------------------------------------------

 OUTPUT CONTROL FOR STRESS PERIOD    2   TIME STEP   22
    SAVE HEAD FOR ALL LAYERS
 SOLVING FOR ZETA FOR LAYER     1 ZONE     2

     652 UPPER PART EQS.       660 LOWER PART EQS.    BAND WIDTH + 1 =   29
 STRESS PERIOD=  2 TIMESTEP= 22 LAYER=  1 ZONE=  2 ACTIVE CELLS= 1312 NUMBER OF EQUATIONS=    1312
 SOLVING FOR ZETA FOR LAYER     2 ZONE     2

     629 UPPER PART EQS.       636 LOWER PART EQS.    BAND WIDTH + 1 =   36
 STRESS PERIOD=  2 TIMESTEP= 22 LAYER=  2 ZONE=  2 ACTIVE CELLS= 1265 NUMBER OF EQUATIONS=    1265
 UBUDSV SAVING "      ZETASRF  1" ON UNIT 55 AT TIME STEP 22, STRESS PERIOD    2

 HEAD WILL BE SAVED ON UNIT   51 AT END OF TIME STEP   22, STRESS PERIOD    2
 
 SOLVING FOR HEAD 
                                                   Max.-Head-Change                         Max.-Flux-Residual
  Residual-Control   Outer-Iter.   Inner-Iter.     Column Row Layer    Maximum-Head-Change  Column Row Layer    Maximum-Flux-Residual          L2-NORM 
          0                 1           1            36   31     2      -0.9169307944E-03      17   54    1        -0.3025622186E+00      0.1083134690E+01
          0                 2           1            34   32     2      -0.9450235816E-04      39   29    2        -0.1477739729E-01      0.6495535897E-01
          0                 3           1            37   31     2      -0.5737517030E-04      37   31    2        -0.4273972596E-02      0.2838916410E-01
          0                 4           1            39   29     2      -0.2945987399E-04      39   29    2        -0.2757013544E-02      0.2077011644E-01
          0                 5           1            37   31     2      -0.2958411279E-04      37   31    2        -0.1749584276E-02      0.1750579196E-01
          0                 6           1            39   29     2      -0.1813501092E-04      39   29    2        -0.1646002903E-02      0.1545434530E-01
          0                 7           1            37   31     2      -0.2210241013E-04      37   31    2        -0.1235233028E-02      0.1355185090E-01
          0                 8           1            34   32     2      -0.1339884042E-04      39   29    2        -0.1175676388E-02      0.1223861245E-01
          0                 9           1            37   31     2      -0.1721385912E-04      37   31    2        -0.9558971014E-03      0.1078616722E-01
          0                10           1            34   32     2      -0.1074833859E-04      33   31    2        -0.8970680728E-03      0.9827518772E-02
                                                   Max.-Head-Change                         Max.-Flux-Residual
  Residual-Control   Outer-Iter.   Inner-Iter.     Column Row Layer    Maximum-Head-Change  Column Row Layer    Maximum-Flux-Residual          L2-NORM 
          0                11           1            37   31     2      -0.1335781261E-04      37   31    2        -0.7600545009E-03      0.8690728540E-02
          0                12           1            34   32     2      -0.8770523388E-05      33   31    2        -0.7264569744E-03      0.7948232101E-02

    ------------------------------------------------
       NWT REQUIRED           12 OUTER ITERATIONS 
       AND A TOTAL OF         12 INNER ITERATIONS.
    ------------------------------------------------

 OUTPUT CONTROL FOR STRESS PERIOD    2   TIME STEP   23
    SAVE HEAD FOR ALL LAYERS
 SOLVING FOR ZETA FOR LAYER     1 ZONE     2

     656 UPPER PART EQS.       660 LOWER PART EQS.    BAND WIDTH + 1 =   26
 STRESS PERIOD=  2 TIMESTEP= 23 LAYER=  1 ZONE=  2 ACTIVE CELLS= 1316 NUMBER OF EQUATIONS=    1316
 SOLVING FOR ZETA FOR LAYER     2 ZONE     2

     629 UPPER PART EQS.       636 LOWER PART EQS.    BAND WIDTH + 1 =   36
 STRESS PERIOD=  2 TIMESTEP= 23 LAYER=  2 ZONE=  2 ACTIVE CELLS= 1265 NUMBER OF EQUATIONS=    1265
 UBUDSV SAVING "      ZETASRF  1" ON UNIT 55 AT TIME STEP 23, STRESS PERIOD    2

 HEAD WILL BE SAVED ON UNIT   51 AT END OF TIME STEP   23, STRESS PERIOD    2
 
 SOLVING FOR HEAD 
                                                   Max.-Head-Change                         Max.-Flux-Residual
  Residual-Control   Outer-Iter.   Inner-Iter.     Column Row Layer    Maximum-Head-Change  Column Row Layer    Maximum-Flux-Residual          L2-NORM 
          0                 1           1            36   31     2      -0.8999116002E-03      31   14    1        -0.4447806343E+00      0.1577140538E+01
          0                 2           1            34   32     2      -0.9043537614E-04      39   29    2        -0.1451162743E-01      0.7367656692E-01
          0                 3           1            37   31     2      -0.5541219642E-04      37   31    2        -0.4328494205E-02      0.3142260421E-01
          0                 4           1            39   29     2      -0.3099543031E-04      39   29    2        -0.2490038642E-02      0.2409921691E-01
          0                 5           1            37   31     2      -0.2972560565E-04      37   31    2        -0.1775913665E-02      0.2123967539E-01
          0                 6           1            34   32     2      -0.2124489276E-04      39   29    2        -0.1602683986E-02      0.1912901142E-01
          0                 7           1            37   31     2      -0.2335020304E-04      37   31    2        -0.1372146213E-02      0.1714578042E-01
          0                 8           1            34   32     2      -0.1720895117E-04      33   31    2        -0.1228643377E-02      0.1556544975E-01
          0                 9           1            37   31     2      -0.1898097269E-04      37   31    2        -0.1123708868E-02      0.1396291574E-01
          0                10           1            33   31     2      -0.1414885110E-04      33   31    2        -0.1033225319E-02      0.1270415938E-01
                                                   Max.-Head-Change                         Max.-Flux-Residual
  Residual-Control   Outer-Iter.   Inner-Iter.     Column Row Layer    Maximum-Head-Change  Column Row Layer    Maximum-Flux-Residual          L2-NORM 
          0                11           1            37   31     2      -0.1537496013E-04      37   31    2        -0.9225171098E-03      0.1140076467E-01
          0                12           1            33   31     2      -0.1164655426E-04      33   31    2        -0.8584137383E-03      0.1038063643E-01
          0                13           1            37   31     2      -0.1240595623E-04      37   31    2        -0.7555362545E-03      0.9321763030E-02
          0                14           1            33   31     2      -0.9588727451E-05      33   31    2        -0.7073071798E-03      0.8489193720E-02

    ------------------------------------------------
       NWT REQUIRED           14 OUTER ITERATIONS 
       AND A TOTAL OF         14 INNER ITERATIONS.
    ------------------------------------------------

 OUTPUT CONTROL FOR STRESS PERIOD    2   TIME STEP   24
    SAVE HEAD FOR ALL LAYERS
 SOLVING FOR ZETA FOR LAYER     1 ZONE     2

     654 UPPER PART EQS.       654 LOWER PART EQS.    BAND WIDTH + 1 =   26
 STRESS PERIOD=  2 TIMESTEP= 24 LAYER=  1 ZONE=  2 ACTIVE CELLS= 1308 NUMBER OF EQUATIONS=    1308
 SOLVING FOR ZETA FOR LAYER     2 ZONE     2

     629 UPPER PART EQS.       636 LOWER PART EQS.    BAND WIDTH + 1 =   36
 STRESS PERIOD=  2 TIMESTEP= 24 LAYER=  2 ZONE=  2 ACTIVE CELLS= 1265 NUMBER OF EQUATIONS=    1265
 UBUDSV SAVING "      ZETASRF  1" ON UNIT 55 AT TIME STEP 24, STRESS PERIOD    2

 HEAD WILL BE SAVED ON UNIT   51 AT END OF TIME STEP   24, STRESS PERIOD    2
 
 SOLVING FOR HEAD 
                                                   Max.-Head-Change                         Max.-Flux-Residual
  Residual-Control   Outer-Iter.   Inner-Iter.     Column Row Layer    Maximum-Head-Change  Column Row Layer    Maximum-Flux-Residual          L2-NORM 
          0                 1           1            36   31     2      -0.8855577746E-03      14   28    1        -0.4771479879E+00      0.2213224077E+01
          0                 2           1            34   32     2      -0.8681910231E-04      39   29    2        -0.1434243196E-01      0.6955405360E-01
          0                 3           1            37   31     2      -0.6068084992E-04      37   31    2        -0.4448854396E-02      0.2792402358E-01
          0                 4           1            39   29     2      -0.2833511569E-04      39   29    2        -0.2416247317E-02      0.2015513374E-01
          0                 5           1            37   31     2      -0.2748179638E-04      37   31    2        -0.1702034060E-02      0.1716889796E-01
          0                 6           1            39   29     2      -0.1875556950E-04      39   29    2        -0.1443397133E-02      0.1519764664E-01
          0                 7           1            37   31     2      -0.1948984152E-04      37   31    2        -0.1228614109E-02      0.1352641885E-01
          0                 8           1            34   32     2      -0.1465629085E-04      39   29    2        -0.1038888614E-02      0.1216876709E-01
          0                 9           1            37   31     2      -0.1504904988E-04      37   31    2        -0.9731202840E-03      0.1091823020E-01
          0                10           1            34   32     2      -0.1190865684E-04      33   31    2        -0.8123732313E-03      0.9869519849E-02
                                                   Max.-Head-Change                         Max.-Flux-Residual
  Residual-Control   Outer-Iter.   Inner-Iter.     Column Row Layer    Maximum-Head-Change  Column Row Layer    Maximum-Flux-Residual          L2-NORM 
          0                11           1            37   31     2      -0.1186800540E-04      37   31    2        -0.7845878757E-03      0.8886707566E-02
          0                12           1            33   31     2      -0.9742160532E-05      33   31    2        -0.6671607025E-03      0.8050686431E-02

    ------------------------------------------------
       NWT REQUIRED           12 OUTER ITERATIONS 
       AND A TOTAL OF         12 INNER ITERATIONS.
    ------------------------------------------------

 OUTPUT CONTROL FOR STRESS PERIOD    2   TIME STEP   25
    SAVE HEAD FOR ALL LAYERS
 SOLVING FOR ZETA FOR LAYER     1 ZONE     2

     646 UPPER PART EQS.       655 LOWER PART EQS.    BAND WIDTH + 1 =   32
 STRESS PERIOD=  2 TIMESTEP= 25 LAYER=  1 ZONE=  2 ACTIVE CELLS= 1301 NUMBER OF EQUATIONS=    1301
 SOLVING FOR ZETA FOR LAYER     2 ZONE     2

     629 UPPER PART EQS.       636 LOWER PART EQS.    BAND WIDTH + 1 =   36
 STRESS PERIOD=  2 TIMESTEP= 25 LAYER=  2 ZONE=  2 ACTIVE CELLS= 1265 NUMBER OF EQUATIONS=    1265
 UBUDSV SAVING "      ZETASRF  1" ON UNIT 55 AT TIME STEP 25, STRESS PERIOD    2

 HEAD WILL BE SAVED ON UNIT   51 AT END OF TIME STEP   25, STRESS PERIOD    2
 
 SOLVING FOR HEAD 
                                                   Max.-Head-Change                         Max.-Flux-Residual
  Residual-Control   Outer-Iter.   Inner-Iter.     Column Row Layer    Maximum-Head-Change  Column Row Layer    Maximum-Flux-Residual          L2-NORM 
          0                 1           1            36   31     2      -0.8703724598E-03      14   34    1         0.4707858303E+00      0.2144686011E+01
          0                 2           1            34   32     2      -0.8627784944E-04      39   29    2        -0.1410064316E-01      0.6895894034E-01
          0                 3           1            37   31     2      -0.5871616165E-04      37   31    2        -0.4333438021E-02      0.2640738570E-01
          0                 4           1            41   31     2      -0.2461004383E-04      39   29    2        -0.2397457032E-02      0.1730234047E-01
          0                 5           1            37   31     2      -0.2513174122E-04      37   31    2        -0.1498767736E-02      0.1376037918E-01
          0                 6           1            41   31     2      -0.1503809403E-04      39   29    2        -0.1298492979E-02      0.1179232168E-01
          0                 7           1            37   31     2      -0.1684818034E-04      37   31    2        -0.9780042892E-03      0.1015301077E-01
          0                 8           1            41   31     2      -0.1041208862E-04      39   29    2        -0.8768263154E-03      0.9039921630E-02
          0                 9           1            37   31     2      -0.1237252968E-04      37   31    2        -0.7343004684E-03      0.7920820617E-02
          0                10           1            34   32     2      -0.8197216688E-05      39   29    2        -0.6290221583E-03      0.7156084256E-02

    ------------------------------------------------
       NWT REQUIRED           10 OUTER ITERATIONS 
       AND A TOTAL OF         10 INNER ITERATIONS.
    ------------------------------------------------

 OUTPUT CONTROL FOR STRESS PERIOD    2   TIME STEP   26
    SAVE HEAD FOR ALL LAYERS
 SOLVING FOR ZETA FOR LAYER     1 ZONE     2

     656 UPPER PART EQS.       662 LOWER PART EQS.    BAND WIDTH + 1 =   28
 STRESS PERIOD=  2 TIMESTEP= 26 LAYER=  1 ZONE=  2 ACTIVE CELLS= 1318 NUMBER OF EQUATIONS=    1318
 SOLVING FOR ZETA FOR LAYER     2 ZONE     2

     629 UPPER PART EQS.       636 LOWER PART EQS.    BAND WIDTH + 1 =   36
 STRESS PERIOD=  2 TIMESTEP= 26 LAYER=  2 ZONE=  2 ACTIVE CELLS= 1265 NUMBER OF EQUATIONS=    1265
 UBUDSV SAVING "      ZETASRF  1" ON UNIT 55 AT TIME STEP 26, STRESS PERIOD    2

 HEAD WILL BE SAVED ON UNIT   51 AT END OF TIME STEP   26, STRESS PERIOD    2
 
 SOLVING FOR HEAD 
                                                   Max.-Head-Change                         Max.-Flux-Residual
  Residual-Control   Outer-Iter.   Inner-Iter.     Column Row Layer    Maximum-Head-Change  Column Row Layer    Maximum-Flux-Residual          L2-NORM 
          0                 1           1            36   31     2      -0.8529522057E-03      14   32    1         0.4185816557E+00      0.1090124810E+01
          0                 2           1            34   32     2      -0.8790944605E-04      39   29    2        -0.1377435729E-01      0.6342512368E-01
          0                 3           1            37   31     2      -0.5349836851E-04      37   31    2        -0.4054539876E-02      0.2557998359E-01
          0                 4           1            39   29     2      -0.2581343533E-04      39   29    2        -0.2399147614E-02      0.1734427376E-01
          0                 5           1            37   31     2      -0.2402386942E-04      37   31    2        -0.1498859538E-02      0.1405749073E-01
          0                 6           1            41   31     2      -0.1584787566E-04      39   29    2        -0.1297449267E-02      0.1212296752E-01
          0                 7           1            37   31     2      -0.1659029771E-04      37   31    2        -0.1015328883E-02      0.1048160114E-01
          0                 8           1            41   31     2      -0.1097505707E-04      39   29    2        -0.8928180520E-03      0.9313757661E-02
          0                 9           1            37   31     2      -0.1248095565E-04      37   31    2        -0.7741976473E-03      0.8180619122E-02
          0                10           1            34   32     2      -0.8681354489E-05      33   31    2        -0.6533506822E-03      0.7369865990E-02

    ------------------------------------------------
       NWT REQUIRED           10 OUTER ITERATIONS 
       AND A TOTAL OF         10 INNER ITERATIONS.
    ------------------------------------------------

 OUTPUT CONTROL FOR STRESS PERIOD    2   TIME STEP   27
    SAVE HEAD FOR ALL LAYERS
 SOLVING FOR ZETA FOR LAYER     1 ZONE     2

     662 UPPER PART EQS.       666 LOWER PART EQS.    BAND WIDTH + 1 =   27
 STRESS PERIOD=  2 TIMESTEP= 27 LAYER=  1 ZONE=  2 ACTIVE CELLS= 1328 NUMBER OF EQUATIONS=    1328
 SOLVING FOR ZETA FOR LAYER     2 ZONE     2

     629 UPPER PART EQS.       636 LOWER PART EQS.    BAND WIDTH + 1 =   36
 STRESS PERIOD=  2 TIMESTEP= 27 LAYER=  2 ZONE=  2 ACTIVE CELLS= 1265 NUMBER OF EQUATIONS=    1265
 UBUDSV SAVING "      ZETASRF  1" ON UNIT 55 AT TIME STEP 27, STRESS PERIOD    2

 HEAD WILL BE SAVED ON UNIT   51 AT END OF TIME STEP   27, STRESS PERIOD    2
 
 SOLVING FOR HEAD 
                                                   Max.-Head-Change                         Max.-Flux-Residual
  Residual-Control   Outer-Iter.   Inner-Iter.     Column Row Layer    Maximum-Head-Change  Column Row Layer    Maximum-Flux-Residual          L2-NORM 
          0                 1           1            36   31     2      -0.8408203500E-03      47   54    1        -0.3039474208E+00      0.1103174740E+01
          0                 2           1            34   32     2      -0.8816207243E-04      39   29    2        -0.1360657639E-01      0.6129121870E-01
          0                 3           1            37   31     2      -0.5183466759E-04      37   31    2        -0.4036138242E-02      0.2623472325E-01
          0                 4           1            39   29     2      -0.2845550644E-04      39   29    2        -0.2462505564E-02      0.1912391556E-01
          0                 5           1            37   31     2      -0.2588351866E-04      37   31    2        -0.1611813453E-02      0.1635810585E-01
          0                 6           1            39   29     2      -0.1768983802E-04      39   29    2        -0.1419920370E-02      0.1453337914E-01
          0                 7           1            37   31     2      -0.1908396269E-04      37   31    2        -0.1163872743E-02      0.1293905946E-01
          0                 8           1            34   32     2      -0.1369645900E-04      39   29    2        -0.1026743165E-02      0.1168031835E-01
          0                 9           1            37   31     2      -0.1504036563E-04      37   31    2        -0.9215068041E-03      0.1045191932E-01
          0                10           1            34   32     2      -0.1101897606E-04      33   31    2        -0.8142740735E-03      0.9482405261E-02
                                                   Max.-Head-Change                         Max.-Flux-Residual
  Residual-Control   Outer-Iter.   Inner-Iter.     Column Row Layer    Maximum-Head-Change  Column Row Layer    Maximum-Flux-Residual          L2-NORM 
          0                11           1            37   31     2      -0.1195470389E-04      37   31    2        -0.7427847628E-03      0.8503877711E-02
          0                12           1            33   31     2      -0.8986902004E-05      33   31    2        -0.6697649847E-03      0.7730861428E-02

    ------------------------------------------------
       NWT REQUIRED           12 OUTER ITERATIONS 
       AND A TOTAL OF         12 INNER ITERATIONS.
    ------------------------------------------------

 OUTPUT CONTROL FOR STRESS PERIOD    2   TIME STEP   28
    SAVE HEAD FOR ALL LAYERS
 SOLVING FOR ZETA FOR LAYER     1 ZONE     2

     662 UPPER PART EQS.       662 LOWER PART EQS.    BAND WIDTH + 1 =   25
 STRESS PERIOD=  2 TIMESTEP= 28 LAYER=  1 ZONE=  2 ACTIVE CELLS= 1324 NUMBER OF EQUATIONS=    1324
 SOLVING FOR ZETA FOR LAYER     2 ZONE     2

     629 UPPER PART EQS.       636 LOWER PART EQS.    BAND WIDTH + 1 =   36
 STRESS PERIOD=  2 TIMESTEP= 28 LAYER=  2 ZONE=  2 ACTIVE CELLS= 1265 NUMBER OF EQUATIONS=    1265
 UBUDSV SAVING "      ZETASRF  1" ON UNIT 55 AT TIME STEP 28, STRESS PERIOD    2

 HEAD WILL BE SAVED ON UNIT   51 AT END OF TIME STEP   28, STRESS PERIOD    2
 
 SOLVING FOR HEAD 
                                                   Max.-Head-Change                         Max.-Flux-Residual
  Residual-Control   Outer-Iter.   Inner-Iter.     Column Row Layer    Maximum-Head-Change  Column Row Layer    Maximum-Flux-Residual          L2-NORM 
          0                 1           1            36   31     2      -0.8278578558E-03      36   31    2        -0.2580003738E+00      0.9445060838E+00
          0                 2           1            34   32     2      -0.8741341499E-04      39   29    2        -0.1339266861E-01      0.6034182273E-01
          0                 3           1            37   31     2      -0.5366945866E-04      37   31    2        -0.3997448199E-02      0.2580059693E-01
          0                 4           1            39   29     2      -0.2863718061E-04      39   29    2        -0.2487947055E-02      0.1854402604E-01
          0                 5           1            37   31     2      -0.2579331373E-04      37   31    2        -0.1616034586E-02      0.1554189248E-01
          0                 6           1            39   29     2      -0.1780357427E-04      39   29    2        -0.1410331396E-02      0.1355912877E-01
          0                 7           1            37   31     2      -0.1815252944E-04      37   31    2        -0.1135941021E-02      0.1195810772E-01
          0                 8           1            34   32     2      -0.1302994799E-04      39   29    2        -0.9828704869E-03      0.1067304609E-01
          0                 9           1            37   31     2      -0.1384723498E-04      37   31    2        -0.8782944544E-03      0.9518552081E-02
          0                10           1            34   32     2      -0.1038903759E-04      33   31    2        -0.7326389547E-03      0.8572436948E-02
                                                   Max.-Head-Change                         Max.-Flux-Residual
  Residual-Control   Outer-Iter.   Inner-Iter.     Column Row Layer    Maximum-Head-Change  Column Row Layer    Maximum-Flux-Residual          L2-NORM 
          0                11           1            37   31     2      -0.1076048988E-04      37   31    2        -0.6977246654E-03      0.7690223479E-02
          0                12           1            34   32     2      -0.8442649037E-05      33   31    2        -0.5940286569E-03      0.6957406344E-02

    ------------------------------------------------
       NWT REQUIRED           12 OUTER ITERATIONS 
       AND A TOTAL OF         12 INNER ITERATIONS.
    ------------------------------------------------

 OUTPUT CONTROL FOR STRESS PERIOD    2   TIME STEP   29
    SAVE HEAD FOR ALL LAYERS
 SOLVING FOR ZETA FOR LAYER     1 ZONE     2

     658 UPPER PART EQS.       664 LOWER PART EQS.    BAND WIDTH + 1 =   29
 STRESS PERIOD=  2 TIMESTEP= 29 LAYER=  1 ZONE=  2 ACTIVE CELLS= 1322 NUMBER OF EQUATIONS=    1322
 SOLVING FOR ZETA FOR LAYER     2 ZONE     2

     629 UPPER PART EQS.       636 LOWER PART EQS.    BAND WIDTH + 1 =   36
 STRESS PERIOD=  2 TIMESTEP= 29 LAYER=  2 ZONE=  2 ACTIVE CELLS= 1265 NUMBER OF EQUATIONS=    1265
 UBUDSV SAVING "      ZETASRF  1" ON UNIT 55 AT TIME STEP 29, STRESS PERIOD    2

 HEAD WILL BE SAVED ON UNIT   51 AT END OF TIME STEP   29, STRESS PERIOD    2
 
 SOLVING FOR HEAD 
                                                   Max.-Head-Change                         Max.-Flux-Residual
  Residual-Control   Outer-Iter.   Inner-Iter.     Column Row Layer    Maximum-Head-Change  Column Row Layer    Maximum-Flux-Residual          L2-NORM 
          0                 1           1            36   31     2      -0.8171650412E-03      14   31    1        -0.4283644640E+00      0.9618324311E+00
          0                 2           1            34   32     2      -0.8631986841E-04      39   29    2        -0.1319047459E-01      0.5878667809E-01
          0                 3           1            37   31     2      -0.4923371447E-04      37   31    2        -0.3914357714E-02      0.2434363294E-01
          0                 4           1            39   29     2      -0.2535214979E-04      39   29    2        -0.2342580948E-02      0.1693237676E-01
          0                 5           1            37   31     2      -0.2320644645E-04      37   31    2        -0.1466027048E-02      0.1419924965E-01
          0                 6           1            39   29     2      -0.1562051461E-04      39   29    2        -0.1242027336E-02      0.1258553948E-01
          0                 7           1            37   31     2      -0.1624982768E-04      37   31    2        -0.1020864856E-02      0.1116888356E-01
          0                 8           1            34   32     2      -0.1207926849E-04      39   29    2        -0.8752508147E-03      0.1007497403E-01
          0                 9           1            37   31     2      -0.1259329383E-04      37   31    2        -0.8063410216E-03      0.9007684626E-02
          0                10           1            34   32     2      -0.9702773374E-05      33   31    2        -0.6925328283E-03      0.8165969450E-02

    ------------------------------------------------
       NWT REQUIRED           10 OUTER ITERATIONS 
       AND A TOTAL OF         10 INNER ITERATIONS.
    ------------------------------------------------

 OUTPUT CONTROL FOR STRESS PERIOD    2   TIME STEP   30
    SAVE HEAD FOR ALL LAYERS
 SOLVING FOR ZETA FOR LAYER     1 ZONE     2

     666 UPPER PART EQS.       659 LOWER PART EQS.    BAND WIDTH + 1 =   32
 STRESS PERIOD=  2 TIMESTEP= 30 LAYER=  1 ZONE=  2 ACTIVE CELLS= 1325 NUMBER OF EQUATIONS=    1325
 SOLVING FOR ZETA FOR LAYER     2 ZONE     2

     629 UPPER PART EQS.       636 LOWER PART EQS.    BAND WIDTH + 1 =   36
 STRESS PERIOD=  2 TIMESTEP= 30 LAYER=  2 ZONE=  2 ACTIVE CELLS= 1265 NUMBER OF EQUATIONS=    1265
 UBUDSV SAVING "      ZETASRF  1" ON UNIT 55 AT TIME STEP 30, STRESS PERIOD    2

 HEAD WILL BE SAVED ON UNIT   51 AT END OF TIME STEP   30, STRESS PERIOD    2
 
 SOLVING FOR HEAD 
                                                   Max.-Head-Change                         Max.-Flux-Residual
  Residual-Control   Outer-Iter.   Inner-Iter.     Column Row Layer    Maximum-Head-Change  Column Row Layer    Maximum-Flux-Residual          L2-NORM 
          0                 1           1            36   31     2      -0.8085165979E-03      14   29    1        -0.4604812297E+00      0.1400001650E+01
          0                 2           1            34   32     2      -0.8374561234E-04      39   29    2        -0.1312084895E-01      0.6183343813E-01
          0                 3           1            37   31     2      -0.5635538578E-04      37   31    2        -0.4127828129E-02      0.2679124563E-01
          0                 4           1            39   29     2      -0.2901142666E-04      39   29    2        -0.2458744359E-02      0.1974535530E-01
          0                 5           1            37   31     2      -0.2686332001E-04      37   31    2        -0.1671794198E-02      0.1697883142E-01
          0                 6           1            39   29     2      -0.1887983373E-04      39   29    2        -0.1438549183E-02      0.1507517542E-01
          0                 7           1            37   31     2      -0.1895855806E-04      37   31    2        -0.1222181656E-02      0.1345842985E-01
          0                 8           1            34   32     2      -0.1491554619E-04      39   29    2        -0.1032407644E-02      0.1210692981E-01
          0                 9           1            37   31     2      -0.1462993993E-04      37   31    2        -0.9760240920E-03      0.1088795045E-01
          0                10           1            34   32     2      -0.1207051983E-04      33   31    2        -0.8065886660E-03      0.9832980006E-02
                                                   Max.-Head-Change                         Max.-Flux-Residual
  Residual-Control   Outer-Iter.   Inner-Iter.     Column Row Layer    Maximum-Head-Change  Column Row Layer    Maximum-Flux-Residual          L2-NORM 
          0                11           1            37   31     2      -0.1157083287E-04      37   31    2        -0.7905926846E-03      0.8872290785E-02
          0                12           1            33   31     2      -0.9851898349E-05      33   31    2        -0.6637578142E-03      0.8028047686E-02

    ------------------------------------------------
       NWT REQUIRED           12 OUTER ITERATIONS 
       AND A TOTAL OF         12 INNER ITERATIONS.
    ------------------------------------------------

 OUTPUT CONTROL FOR STRESS PERIOD    2   TIME STEP   31
    SAVE HEAD FOR ALL LAYERS
 SOLVING FOR ZETA FOR LAYER     1 ZONE     2

     664 UPPER PART EQS.       660 LOWER PART EQS.    BAND WIDTH + 1 =   29
 STRESS PERIOD=  2 TIMESTEP= 31 LAYER=  1 ZONE=  2 ACTIVE CELLS= 1324 NUMBER OF EQUATIONS=    1324
 SOLVING FOR ZETA FOR LAYER     2 ZONE     2

     629 UPPER PART EQS.       636 LOWER PART EQS.    BAND WIDTH + 1 =   36
 STRESS PERIOD=  2 TIMESTEP= 31 LAYER=  2 ZONE=  2 ACTIVE CELLS= 1265 NUMBER OF EQUATIONS=    1265
 UBUDSV SAVING "      ZETASRF  1" ON UNIT 55 AT TIME STEP 31, STRESS PERIOD    2

 HEAD WILL BE SAVED ON UNIT   51 AT END OF TIME STEP   31, STRESS PERIOD    2
 
 SOLVING FOR HEAD 
                                                   Max.-Head-Change                         Max.-Flux-Residual
  Residual-Control   Outer-Iter.   Inner-Iter.     Column Row Layer    Maximum-Head-Change  Column Row Layer    Maximum-Flux-Residual          L2-NORM 
          0                 1           1            36   31     2      -0.7977383964E-03      14   29    1         0.4537941046E+00      0.1547627074E+01
          0                 2           1            34   32     2      -0.8270044779E-04      39   29    2        -0.1288238356E-01      0.5982540937E-01
          0                 3           1            37   31     2      -0.5160945165E-04      37   31    2        -0.3984428572E-02      0.2386801825E-01
          0                 4           1            39   29     2      -0.2491691698E-04      39   29    2        -0.2202958289E-02      0.1647261647E-01
          0                 5           1            37   31     2      -0.2280344066E-04      37   31    2        -0.1451599901E-02      0.1386275417E-01
          0                 6           1            34   32     2      -0.1590141653E-04      39   29    2        -0.1190843891E-02      0.1227044968E-01
          0                 7           1            37   31     2      -0.1556448133E-04      37   31    2        -0.1016730494E-02      0.1091630746E-01
          0                 8           1            34   32     2      -0.1228435345E-04      39   29    2        -0.8335926107E-03      0.9823980588E-02
          0                 9           1            37   31     2      -0.1191136849E-04      37   31    2        -0.8011863645E-03      0.8817151395E-02
          0                10           1            34   32     2      -0.9834362380E-05      33   31    2        -0.6551151018E-03      0.7971490239E-02

    ------------------------------------------------
       NWT REQUIRED           10 OUTER ITERATIONS 
       AND A TOTAL OF         10 INNER ITERATIONS.
    ------------------------------------------------

 OUTPUT CONTROL FOR STRESS PERIOD    2   TIME STEP   32
    SAVE HEAD FOR ALL LAYERS
 SOLVING FOR ZETA FOR LAYER     1 ZONE     2

     664 UPPER PART EQS.       664 LOWER PART EQS.    BAND WIDTH + 1 =   25
 STRESS PERIOD=  2 TIMESTEP= 32 LAYER=  1 ZONE=  2 ACTIVE CELLS= 1328 NUMBER OF EQUATIONS=    1328
 SOLVING FOR ZETA FOR LAYER     2 ZONE     2

     629 UPPER PART EQS.       636 LOWER PART EQS.    BAND WIDTH + 1 =   36
 STRESS PERIOD=  2 TIMESTEP= 32 LAYER=  2 ZONE=  2 ACTIVE CELLS= 1265 NUMBER OF EQUATIONS=    1265
 UBUDSV SAVING "      ZETASRF  1" ON UNIT 55 AT TIME STEP 32, STRESS PERIOD    2

 HEAD WILL BE SAVED ON UNIT   51 AT END OF TIME STEP   32, STRESS PERIOD    2
 
 SOLVING FOR HEAD 
                                                   Max.-Head-Change                         Max.-Flux-Residual
  Residual-Control   Outer-Iter.   Inner-Iter.     Column Row Layer    Maximum-Head-Change  Column Row Layer    Maximum-Flux-Residual          L2-NORM 
          0                 1           1            36   31     2      -0.7870087333E-03      14   32    1         0.4362338774E+00      0.1123743686E+01
          0                 2           1            34   32     2      -0.8293126140E-04      39   29    2        -0.1271738516E-01      0.6002690523E-01
          0                 3           1            37   31     2      -0.5517564030E-04      37   31    2        -0.3924663255E-02      0.2511032856E-01
          0                 4           1            39   29     2      -0.2668125006E-04      39   29    2        -0.2308820134E-02      0.1739617019E-01
          0                 5           1            37   31     2      -0.2499300678E-04      37   31    2        -0.1523785063E-02      0.1415335973E-01
          0                 6           1            41   31     2      -0.1618200848E-04      39   29    2        -0.1280689156E-02      0.1202719124E-01
          0                 7           1            37   31     2      -0.1690806878E-04      37   31    2        -0.1029021156E-02      0.1038362498E-01
          0                 8           1            41   31     2      -0.1114467176E-04      39   29    2        -0.8726549083E-03      0.9106831862E-02
          0                 9           1            37   31     2      -0.1255004123E-04      37   31    2        -0.7760742424E-03      0.8012238427E-02
          0                10           1            34   32     2      -0.8612068050E-05      33   31    2        -0.6462094117E-03      0.7147393518E-02

    ------------------------------------------------
       NWT REQUIRED           10 OUTER ITERATIONS 
       AND A TOTAL OF         10 INNER ITERATIONS.
    ------------------------------------------------

 OUTPUT CONTROL FOR STRESS PERIOD    2   TIME STEP   33
    SAVE HEAD FOR ALL LAYERS
 SOLVING FOR ZETA FOR LAYER     1 ZONE     2

     658 UPPER PART EQS.       666 LOWER PART EQS.    BAND WIDTH + 1 =   31
 STRESS PERIOD=  2 TIMESTEP= 33 LAYER=  1 ZONE=  2 ACTIVE CELLS= 1324 NUMBER OF EQUATIONS=    1324
 SOLVING FOR ZETA FOR LAYER     2 ZONE     2

     629 UPPER PART EQS.       636 LOWER PART EQS.    BAND WIDTH + 1 =   36
 STRESS PERIOD=  2 TIMESTEP= 33 LAYER=  2 ZONE=  2 ACTIVE CELLS= 1265 NUMBER OF EQUATIONS=    1265
 UBUDSV SAVING "      ZETASRF  1" ON UNIT 55 AT TIME STEP 33, STRESS PERIOD    2

 HEAD WILL BE SAVED ON UNIT   51 AT END OF TIME STEP   33, STRESS PERIOD    2
 
 SOLVING FOR HEAD 
                                                   Max.-Head-Change                         Max.-Flux-Residual
  Residual-Control   Outer-Iter.   Inner-Iter.     Column Row Layer    Maximum-Head-Change  Column Row Layer    Maximum-Flux-Residual          L2-NORM 
          0                 1           1            36   31     2      -0.7783918003E-03      36   31    2        -0.2485215664E+00      0.7180068894E+00
          0                 2           1            34   32     2      -0.8492612924E-04      39   29    2        -0.1254904984E-01      0.5438567489E-01
          0                 3           1            37   31     2      -0.4805756049E-04      37   31    2        -0.3741012900E-02      0.2345080147E-01
          0                 4           1            39   29     2      -0.2738449434E-04      39   29    2        -0.2339391083E-02      0.1696867683E-01
          0                 5           1            37   31     2      -0.2379131384E-04      37   31    2        -0.1526322554E-02      0.1424760679E-01
          0                 6           1            39   29     2      -0.1617287291E-04      39   29    2        -0.1284798472E-02      0.1247610342E-01
          0                 7           1            37   31     2      -0.1712519153E-04      37   31    2        -0.1047749330E-02      0.1094686101E-01
          0                 8           1            34   32     2      -0.1159815723E-04      39   29    2        -0.8938720243E-03      0.9814561667E-02
          0                 9           1            37   31     2      -0.1322081032E-04      37   31    2        -0.7974611214E-03      0.8675460611E-02
          0                10           1            34   32     2      -0.9099764618E-05      33   31    2        -0.6943880646E-03      0.7859470029E-02

    ------------------------------------------------
       NWT REQUIRED           10 OUTER ITERATIONS 
       AND A TOTAL OF         10 INNER ITERATIONS.
    ------------------------------------------------

 OUTPUT CONTROL FOR STRESS PERIOD    2   TIME STEP   34
    SAVE HEAD FOR ALL LAYERS
 SOLVING FOR ZETA FOR LAYER     1 ZONE     2

     668 UPPER PART EQS.       660 LOWER PART EQS.    BAND WIDTH + 1 =   33
 STRESS PERIOD=  2 TIMESTEP= 34 LAYER=  1 ZONE=  2 ACTIVE CELLS= 1328 NUMBER OF EQUATIONS=    1328
 SOLVING FOR ZETA FOR LAYER     2 ZONE     2

     629 UPPER PART EQS.       636 LOWER PART EQS.    BAND WIDTH + 1 =   36
 STRESS PERIOD=  2 TIMESTEP= 34 LAYER=  2 ZONE=  2 ACTIVE CELLS= 1265 NUMBER OF EQUATIONS=    1265
 UBUDSV SAVING "      ZETASRF  1" ON UNIT 55 AT TIME STEP 34, STRESS PERIOD    2

 HEAD WILL BE SAVED ON UNIT   51 AT END OF TIME STEP   34, STRESS PERIOD    2
 
 SOLVING FOR HEAD 
                                                   Max.-Head-Change                         Max.-Flux-Residual
  Residual-Control   Outer-Iter.   Inner-Iter.     Column Row Layer    Maximum-Head-Change  Column Row Layer    Maximum-Flux-Residual          L2-NORM 
          0                 1           1            36   31     2      -0.7708172028E-03      15   41    1        -0.2502358132E+00      0.8509662422E+00
          0                 2           1            34   32     2      -0.8358510185E-04      39   29    2        -0.1242595118E-01      0.5560126749E-01
          0                 3           1            37   31     2      -0.4911774520E-04      37   31    2        -0.3785367312E-02      0.2366054227E-01
          0                 4           1            39   29     2      -0.2588725707E-04      39   29    2        -0.2221606144E-02      0.1658324417E-01
          0                 5           1            37   31     2      -0.2334792046E-04      37   31    2        -0.1476495499E-02      0.1404425450E-01
          0                 6           1            34   32     2      -0.1613331953E-04      39   29    2        -0.1164925170E-02      0.1245505234E-01
          0                 7           1            37   31     2      -0.1602241216E-04      37   31    2        -0.1028409833E-02      0.1113199291E-01
          0                 8           1            34   32     2      -0.1236737788E-04      33   31    2        -0.8335621308E-03      0.1002170085E-01
          0                 9           1            37   31     2      -0.1230240277E-04      37   31    2        -0.8098451416E-03      0.9007812439E-02
          0                10           1            34   32     2      -0.9844645813E-05      33   31    2        -0.6802987465E-03      0.8141254154E-02

    ------------------------------------------------
       NWT REQUIRED           10 OUTER ITERATIONS 
       AND A TOTAL OF         10 INNER ITERATIONS.
    ------------------------------------------------

 OUTPUT CONTROL FOR STRESS PERIOD    2   TIME STEP   35
    SAVE HEAD FOR ALL LAYERS
 SOLVING FOR ZETA FOR LAYER     1 ZONE     2

     666 UPPER PART EQS.       662 LOWER PART EQS.    BAND WIDTH + 1 =   29
 STRESS PERIOD=  2 TIMESTEP= 35 LAYER=  1 ZONE=  2 ACTIVE CELLS= 1328 NUMBER OF EQUATIONS=    1328
 SOLVING FOR ZETA FOR LAYER     2 ZONE     2

     629 UPPER PART EQS.       636 LOWER PART EQS.    BAND WIDTH + 1 =   36
 STRESS PERIOD=  2 TIMESTEP= 35 LAYER=  2 ZONE=  2 ACTIVE CELLS= 1265 NUMBER OF EQUATIONS=    1265
 UBUDSV SAVING "      ZETASRF  1" ON UNIT 55 AT TIME STEP 35, STRESS PERIOD    2

 HEAD WILL BE SAVED ON UNIT   51 AT END OF TIME STEP   35, STRESS PERIOD    2
 
 SOLVING FOR HEAD 
                                                   Max.-Head-Change                         Max.-Flux-Residual
  Residual-Control   Outer-Iter.   Inner-Iter.     Column Row Layer    Maximum-Head-Change  Column Row Layer    Maximum-Flux-Residual          L2-NORM 
          0                 1           1            36   31     2      -0.7626566790E-03      14   31    1        -0.4468587620E+00      0.1058038692E+01
          0                 2           1            34   32     2      -0.8214761099E-04      39   29    2        -0.1226298199E-01      0.5571837168E-01
          0                 3           1            37   31     2      -0.4958598322E-04      37   31    2        -0.3763951530E-02      0.2361093721E-01
          0                 4           1            39   29     2      -0.2629711154E-04      39   29    2        -0.2158312996E-02      0.1709241253E-01
          0                 5           1            37   31     2      -0.2427314576E-04      37   31    2        -0.1478032405E-02      0.1458807295E-01
          0                 6           1            34   32     2      -0.1627354680E-04      39   29    2        -0.1183896965E-02      0.1295621185E-01
          0                 7           1            37   31     2      -0.1715632797E-04      37   31    2        -0.1030648457E-02      0.1153041075E-01
          0                 8           1            34   32     2      -0.1237264237E-04      33   31    2        -0.8617721999E-03      0.1041330701E-01
          0                 9           1            37   31     2      -0.1323974045E-04      37   31    2        -0.8064387507E-03      0.9309919249E-02
          0                10           1            34   32     2      -0.9833654159E-05      33   31    2        -0.7028973293E-03      0.8451940987E-02

    ------------------------------------------------
       NWT REQUIRED           10 OUTER ITERATIONS 
       AND A TOTAL OF         10 INNER ITERATIONS.
    ------------------------------------------------

 OUTPUT CONTROL FOR STRESS PERIOD    2   TIME STEP   36
    SAVE HEAD FOR ALL LAYERS
 SOLVING FOR ZETA FOR LAYER     1 ZONE     2

     664 UPPER PART EQS.       665 LOWER PART EQS.    BAND WIDTH + 1 =   24
 STRESS PERIOD=  2 TIMESTEP= 36 LAYER=  1 ZONE=  2 ACTIVE CELLS= 1329 NUMBER OF EQUATIONS=    1329
 SOLVING FOR ZETA FOR LAYER     2 ZONE     2

     629 UPPER PART EQS.       636 LOWER PART EQS.    BAND WIDTH + 1 =   36
 STRESS PERIOD=  2 TIMESTEP= 36 LAYER=  2 ZONE=  2 ACTIVE CELLS= 1265 NUMBER OF EQUATIONS=    1265
 UBUDSV SAVING "      ZETASRF  1" ON UNIT 55 AT TIME STEP 36, STRESS PERIOD    2

 HEAD WILL BE SAVED ON UNIT   51 AT END OF TIME STEP   36, STRESS PERIOD    2
 
 SOLVING FOR HEAD 
                                                   Max.-Head-Change                         Max.-Flux-Residual
  Residual-Control   Outer-Iter.   Inner-Iter.     Column Row Layer    Maximum-Head-Change  Column Row Layer    Maximum-Flux-Residual          L2-NORM 
          0                 1           1            36   31     2      -0.7559571552E-03      14   31    1         0.4398833943E+00      0.1025501760E+01
          0                 2           1            34   32     2      -0.8119117626E-04      39   29    2        -0.1217170895E-01      0.5647558314E-01
          0                 3           1            37   31     2      -0.5498400456E-04      37   31    2        -0.3836389720E-02      0.2484824400E-01
          0                 4           1            39   29     2      -0.2839216715E-04      39   29    2        -0.2298479808E-02      0.1791969400E-01
          0                 5           1            37   31     2      -0.2558183632E-04      37   31    2        -0.1605820514E-02      0.1494521092E-01
          0                 6           1            39   29     2      -0.1786741258E-04      39   29    2        -0.1299998784E-02      0.1287627814E-01
          0                 7           1            37   31     2      -0.1708884973E-04      37   31    2        -0.1122859352E-02      0.1127968062E-01
          0                 8           1            34   32     2      -0.1281248003E-04      39   29    2        -0.8854621523E-03      0.9974246527E-02
          0                 9           1            37   31     2      -0.1261514609E-04      37   31    2        -0.8577327733E-03      0.8888050171E-02
          0                10           1            34   32     2      -0.1007458004E-04      33   31    2        -0.6691298501E-03      0.7959708336E-02
          0                11           1            37   31     2      -0.9667923074E-05      37   31    2        -0.6699169362E-03      0.7161472166E-02

    ------------------------------------------------
       NWT REQUIRED           11 OUTER ITERATIONS 
       AND A TOTAL OF         11 INNER ITERATIONS.
    ------------------------------------------------

 OUTPUT CONTROL FOR STRESS PERIOD    2   TIME STEP   37
    SAVE HEAD FOR ALL LAYERS
 SOLVING FOR ZETA FOR LAYER     1 ZONE     2

     660 UPPER PART EQS.       664 LOWER PART EQS.    BAND WIDTH + 1 =   27
 STRESS PERIOD=  2 TIMESTEP= 37 LAYER=  1 ZONE=  2 ACTIVE CELLS= 1324 NUMBER OF EQUATIONS=    1324
 SOLVING FOR ZETA FOR LAYER     2 ZONE     2

     629 UPPER PART EQS.       636 LOWER PART EQS.    BAND WIDTH + 1 =   36
 STRESS PERIOD=  2 TIMESTEP= 37 LAYER=  2 ZONE=  2 ACTIVE CELLS= 1265 NUMBER OF EQUATIONS=    1265
 UBUDSV SAVING "      ZETASRF  1" ON UNIT 55 AT TIME STEP 37, STRESS PERIOD    2

 HEAD WILL BE SAVED ON UNIT   51 AT END OF TIME STEP   37, STRESS PERIOD    2
 
 SOLVING FOR HEAD 
                                                   Max.-Head-Change                         Max.-Flux-Residual
  Residual-Control   Outer-Iter.   Inner-Iter.     Column Row Layer    Maximum-Head-Change  Column Row Layer    Maximum-Flux-Residual          L2-NORM 
          0                 1           1            36   31     2      -0.7474899364E-03      36   31    2        -0.2446565628E+00      0.7150598660E+00
          0                 2           1            34   32     2      -0.8125094386E-04      39   29    2        -0.1193513428E-01      0.5207712493E-01
          0                 3           1            37   31     2      -0.4495697412E-04      37   31    2        -0.3575273614E-02      0.2128584059E-01
          0                 4           1            39   29     2      -0.2393374367E-04      39   29    2        -0.2044543725E-02      0.1426860878E-01
          0                 5           1            37   31     2      -0.1935118678E-04      37   31    2        -0.1345378233E-02      0.1163771703E-01
          0                 6           1            39   29     2      -0.1484266250E-04      39   29    2        -0.1000912105E-02      0.1009310187E-01
          0                 7           1            37   31     2      -0.1250719116E-04      37   31    2        -0.9126399039E-03      0.8927442269E-02
          0                 8           1            34   32     2      -0.1103758002E-04      39   29    2        -0.6635902689E-03      0.7918658852E-02
          0                 9           1            37   31     2      -0.9378772384E-05      37   31    2        -0.7041940971E-03      0.7122170002E-02

    ------------------------------------------------
       NWT REQUIRED            9 OUTER ITERATIONS 
       AND A TOTAL OF          9 INNER ITERATIONS.
    ------------------------------------------------

 OUTPUT CONTROL FOR STRESS PERIOD    2   TIME STEP   38
    SAVE HEAD FOR ALL LAYERS
 SOLVING FOR ZETA FOR LAYER     1 ZONE     2

     668 UPPER PART EQS.       666 LOWER PART EQS.    BAND WIDTH + 1 =   27
 STRESS PERIOD=  2 TIMESTEP= 38 LAYER=  1 ZONE=  2 ACTIVE CELLS= 1334 NUMBER OF EQUATIONS=    1334
 SOLVING FOR ZETA FOR LAYER     2 ZONE     2

     629 UPPER PART EQS.       636 LOWER PART EQS.    BAND WIDTH + 1 =   36
 STRESS PERIOD=  2 TIMESTEP= 38 LAYER=  2 ZONE=  2 ACTIVE CELLS= 1265 NUMBER OF EQUATIONS=    1265
 UBUDSV SAVING "      ZETASRF  1" ON UNIT 55 AT TIME STEP 38, STRESS PERIOD    2

 HEAD WILL BE SAVED ON UNIT   51 AT END OF TIME STEP   38, STRESS PERIOD    2
 
 SOLVING FOR HEAD 
                                                   Max.-Head-Change                         Max.-Flux-Residual
  Residual-Control   Outer-Iter.   Inner-Iter.     Column Row Layer    Maximum-Head-Change  Column Row Layer    Maximum-Flux-Residual          L2-NORM 
          0                 1           1            36   31     2      -0.7405630217E-03      14   30    1        -0.4624617196E+00      0.1235864951E+01
          0                 2           1            34   32     2      -0.7833014890E-04      39   29    2        -0.1182872151E-01      0.5887058643E-01
          0                 3           1            37   31     2      -0.4916478311E-04      37   31    2        -0.3692684572E-02      0.2479187578E-01
          0                 4           1            39   29     2      -0.2771503743E-04      39   29    2        -0.2071560367E-02      0.1818191582E-01
          0                 5           1            37   31     2      -0.2406912940E-04      37   31    2        -0.1469875111E-02      0.1568060628E-01
          0                 6           1            34   32     2      -0.1786021215E-04      39   29    2        -0.1170030404E-02      0.1393436104E-01
          0                 7           1            37   31     2      -0.1700639327E-04      37   31    2        -0.1067535950E-02      0.1245863763E-01
          0                 8           1            34   32     2      -0.1384800292E-04      33   31    2        -0.8730564466E-03      0.1120612531E-01
          0                 9           1            37   31     2      -0.1318816061E-04      37   31    2        -0.8551180931E-03      0.1008531570E-01
          0                10           1            34   32     2      -0.1108146063E-04      33   31    2        -0.7174039252E-03      0.9109884675E-02
                                                   Max.-Head-Change                         Max.-Flux-Residual
  Residual-Control   Outer-Iter.   Inner-Iter.     Column Row Layer    Maximum-Head-Change  Column Row Layer    Maximum-Flux-Residual          L2-NORM 
          0                11           1            37   31     2      -0.1048733035E-04      37   31    2        -0.6965870653E-03      0.8220210066E-02
          0                12           1            33   31     2      -0.9017872846E-05      33   31    2        -0.5920805095E-03      0.7440362796E-02

    ------------------------------------------------
       NWT REQUIRED           12 OUTER ITERATIONS 
       AND A TOTAL OF         12 INNER ITERATIONS.
    ------------------------------------------------

 OUTPUT CONTROL FOR STRESS PERIOD    2   TIME STEP   39
    SAVE HEAD FOR ALL LAYERS
 SOLVING FOR ZETA FOR LAYER     1 ZONE     2

     664 UPPER PART EQS.       666 LOWER PART EQS.    BAND WIDTH + 1 =   27
 STRESS PERIOD=  2 TIMESTEP= 39 LAYER=  1 ZONE=  2 ACTIVE CELLS= 1330 NUMBER OF EQUATIONS=    1330
 SOLVING FOR ZETA FOR LAYER     2 ZONE     2

     629 UPPER PART EQS.       636 LOWER PART EQS.    BAND WIDTH + 1 =   36
 STRESS PERIOD=  2 TIMESTEP= 39 LAYER=  2 ZONE=  2 ACTIVE CELLS= 1265 NUMBER OF EQUATIONS=    1265
 UBUDSV SAVING "      ZETASRF  1" ON UNIT 55 AT TIME STEP 39, STRESS PERIOD    2

 HEAD WILL BE SAVED ON UNIT   51 AT END OF TIME STEP   39, STRESS PERIOD    2
 
 SOLVING FOR HEAD 
                                                   Max.-Head-Change                         Max.-Flux-Residual
  Residual-Control   Outer-Iter.   Inner-Iter.     Column Row Layer    Maximum-Head-Change  Column Row Layer    Maximum-Flux-Residual          L2-NORM 
          0                 1           1            36   31     2      -0.7359433509E-03      14   30    1         0.4548255267E+00      0.1290291410E+01
          0                 2           1            34   32     2      -0.7629102803E-04      39   29    2        -0.1171494828E-01      0.5708882742E-01
          0                 3           1            37   31     2      -0.5158195065E-04      37   31    2        -0.3729512763E-02      0.2286816890E-01
          0                 4           1            39   29     2      -0.2351373212E-04      39   29    2        -0.1957192303E-02      0.1551931098E-01
          0                 5           1            37   31     2      -0.2144649765E-04      37   31    2        -0.1346201618E-02      0.1257791406E-01
          0                 6           1            39   29     2      -0.1490560471E-04      39   29    2        -0.1016640977E-02      0.1088091569E-01
          0                 7           1            37   31     2      -0.1359674292E-04      37   31    2        -0.9070742261E-03      0.9458431558E-02
          0                 8           1            34   32     2      -0.1088110689E-04      39   29    2        -0.6836746563E-03      0.8365428856E-02
          0                 9           1            37   31     2      -0.9929529808E-05      37   31    2        -0.6994403788E-03      0.7439875477E-02

    ------------------------------------------------
       NWT REQUIRED            9 OUTER ITERATIONS 
       AND A TOTAL OF          9 INNER ITERATIONS.
    ------------------------------------------------

 OUTPUT CONTROL FOR STRESS PERIOD    2   TIME STEP   40
    SAVE HEAD FOR ALL LAYERS
 SOLVING FOR ZETA FOR LAYER     1 ZONE     2

     666 UPPER PART EQS.       658 LOWER PART EQS.    BAND WIDTH + 1 =   33
 STRESS PERIOD=  2 TIMESTEP= 40 LAYER=  1 ZONE=  2 ACTIVE CELLS= 1324 NUMBER OF EQUATIONS=    1324
 SOLVING FOR ZETA FOR LAYER     2 ZONE     2

     629 UPPER PART EQS.       636 LOWER PART EQS.    BAND WIDTH + 1 =   36
 STRESS PERIOD=  2 TIMESTEP= 40 LAYER=  2 ZONE=  2 ACTIVE CELLS= 1265 NUMBER OF EQUATIONS=    1265
 UBUDSV SAVING "      ZETASRF  1" ON UNIT 55 AT TIME STEP 40, STRESS PERIOD    2

 HEAD WILL BE SAVED ON UNIT   51 AT END OF TIME STEP   40, STRESS PERIOD    2
 
 SOLVING FOR HEAD 
                                                   Max.-Head-Change                         Max.-Flux-Residual
  Residual-Control   Outer-Iter.   Inner-Iter.     Column Row Layer    Maximum-Head-Change  Column Row Layer    Maximum-Flux-Residual          L2-NORM 
          0                 1           1            36   31     2      -0.7304815194E-03      14   29    1        -0.4889130311E+00      0.1404909354E+01
          0                 2           1            34   32     2      -0.7600852486E-04      39   29    2        -0.1162799397E-01      0.5802421449E-01
          0                 3           1            37   31     2      -0.5094668800E-04      37   31    2        -0.3736633341E-02      0.2371197622E-01
          0                 4           1            39   29     2      -0.2514815071E-04      39   29    2        -0.2031877859E-02      0.1648584905E-01
          0                 5           1            37   31     2      -0.2305078553E-04      37   31    2        -0.1410840368E-02      0.1379558002E-01
          0                 6           1            39   29     2      -0.1603162399E-04      39   29    2        -0.1088306037E-02      0.1210812748E-01
          0                 7           1            37   31     2      -0.1509149939E-04      37   31    2        -0.9724410699E-03      0.1072868569E-01
          0                 8           1            34   32     2      -0.1236859451E-04      39   29    2        -0.7494524930E-03      0.9581944637E-02
          0                 9           1            37   31     2      -0.1126971382E-04      37   31    2        -0.7606478795E-03      0.8608190871E-02
          0                10           1            34   32     2      -0.9822485719E-05      33   31    2        -0.5898956594E-03      0.7724405916E-02

    ------------------------------------------------
       NWT REQUIRED           10 OUTER ITERATIONS 
       AND A TOTAL OF         10 INNER ITERATIONS.
    ------------------------------------------------

 OUTPUT CONTROL FOR STRESS PERIOD    2   TIME STEP   41
    SAVE HEAD FOR ALL LAYERS
 SOLVING FOR ZETA FOR LAYER     1 ZONE     2

     662 UPPER PART EQS.       670 LOWER PART EQS.    BAND WIDTH + 1 =   30
 STRESS PERIOD=  2 TIMESTEP= 41 LAYER=  1 ZONE=  2 ACTIVE CELLS= 1332 NUMBER OF EQUATIONS=    1332
 SOLVING FOR ZETA FOR LAYER     2 ZONE     2

     629 UPPER PART EQS.       636 LOWER PART EQS.    BAND WIDTH + 1 =   36
 STRESS PERIOD=  2 TIMESTEP= 41 LAYER=  2 ZONE=  2 ACTIVE CELLS= 1265 NUMBER OF EQUATIONS=    1265
 UBUDSV SAVING "      ZETASRF  1" ON UNIT 55 AT TIME STEP 41, STRESS PERIOD    2

 HEAD WILL BE SAVED ON UNIT   51 AT END OF TIME STEP   41, STRESS PERIOD    2
 
 SOLVING FOR HEAD 
                                                   Max.-Head-Change                         Max.-Flux-Residual
  Residual-Control   Outer-Iter.   Inner-Iter.     Column Row Layer    Maximum-Head-Change  Column Row Layer    Maximum-Flux-Residual          L2-NORM 
          0                 1           1            36   31     2      -0.7262537285E-03      14   33    1         0.4805663117E+00      0.1297099167E+01
          0                 2           1            34   32     2      -0.7534292028E-04      39   29    2        -0.1151951031E-01      0.5498452181E-01
          0                 3           1            37   31     2      -0.5165066553E-04      37   31    2        -0.3708163401E-02      0.2223976909E-01
          0                 4           1            39   29     2      -0.2325937005E-04      39   29    2        -0.1957992102E-02      0.1491012194E-01
          0                 5           1            37   31     2      -0.2080268378E-04      37   31    2        -0.1356605048E-02      0.1193817103E-01
          0                 6           1            39   29     2      -0.1454487512E-04      39   29    2        -0.1017052354E-02      0.1011451536E-01
          0                 7           1            37   31     2      -0.1276914745E-04      37   31    2        -0.8994971465E-03      0.8714492650E-02
          0                 8           1            41   31     2      -0.1047065123E-04      39   29    2        -0.6592596696E-03      0.7586700722E-02
          0                 9           1            37   31     2      -0.9135807288E-05      37   31    2        -0.6842024717E-03      0.6717844708E-02

    ------------------------------------------------
       NWT REQUIRED            9 OUTER ITERATIONS 
       AND A TOTAL OF          9 INNER ITERATIONS.
    ------------------------------------------------

 OUTPUT CONTROL FOR STRESS PERIOD    2   TIME STEP   42
    SAVE HEAD FOR ALL LAYERS
 SOLVING FOR ZETA FOR LAYER     1 ZONE     2

     668 UPPER PART EQS.       668 LOWER PART EQS.    BAND WIDTH + 1 =   27
 STRESS PERIOD=  2 TIMESTEP= 42 LAYER=  1 ZONE=  2 ACTIVE CELLS= 1336 NUMBER OF EQUATIONS=    1336
 SOLVING FOR ZETA FOR LAYER     2 ZONE     2

     629 UPPER PART EQS.       636 LOWER PART EQS.    BAND WIDTH + 1 =   36
 STRESS PERIOD=  2 TIMESTEP= 42 LAYER=  2 ZONE=  2 ACTIVE CELLS= 1265 NUMBER OF EQUATIONS=    1265
 UBUDSV SAVING "      ZETASRF  1" ON UNIT 55 AT TIME STEP 42, STRESS PERIOD    2

 HEAD WILL BE SAVED ON UNIT   51 AT END OF TIME STEP   42, STRESS PERIOD    2
 
 SOLVING FOR HEAD 
                                                   Max.-Head-Change                         Max.-Flux-Residual
  Residual-Control   Outer-Iter.   Inner-Iter.     Column Row Layer    Maximum-Head-Change  Column Row Layer    Maximum-Flux-Residual          L2-NORM 
          0                 1           1            36   31     2      -0.7192681638E-03      14   31    1        -0.4651881613E+00      0.1184200816E+01
          0                 2           1            38   30     2      -0.7683924098E-04      39   29    2        -0.1138615029E-01      0.5426364533E-01
          0                 3           1            37   31     2      -0.4905253690E-04      37   31    2        -0.3603601541E-02      0.2371840487E-01
          0                 4           1            39   29     2      -0.2743335434E-04      39   29    2        -0.2131799164E-02      0.1717743938E-01
          0                 5           1            37   31     2      -0.2301971213E-04      37   31    2        -0.1474626903E-02      0.1459278586E-01
          0                 6           1            39   29     2      -0.1773617866E-04      39   29    2        -0.1158763016E-02      0.1280180941E-01
          0                 7           1            37   31     2      -0.1539034612E-04      37   31    2        -0.1054847999E-02      0.1143003916E-01
          0                 8           1            34   32     2      -0.1370608937E-04      39   29    2        -0.8047019281E-03      0.1017936161E-01
          0                 9           1            37   31     2      -0.1165444911E-04      37   31    2        -0.8320101434E-03      0.9195408712E-02
          0                10           1            34   32     2      -0.1086283261E-04      33   31    2        -0.6295077384E-03      0.8230997225E-02
          0                11           1            37   31     2      -0.9193320219E-05      37   31    2        -0.6675450791E-03      0.7466682638E-02

    ------------------------------------------------
       NWT REQUIRED           11 OUTER ITERATIONS 
       AND A TOTAL OF         11 INNER ITERATIONS.
    ------------------------------------------------

 OUTPUT CONTROL FOR STRESS PERIOD    2   TIME STEP   43
    SAVE HEAD FOR ALL LAYERS
 SOLVING FOR ZETA FOR LAYER     1 ZONE     2

     665 UPPER PART EQS.       669 LOWER PART EQS.    BAND WIDTH + 1 =   27
 STRESS PERIOD=  2 TIMESTEP= 43 LAYER=  1 ZONE=  2 ACTIVE CELLS= 1334 NUMBER OF EQUATIONS=    1334
 SOLVING FOR ZETA FOR LAYER     2 ZONE     2

     629 UPPER PART EQS.       636 LOWER PART EQS.    BAND WIDTH + 1 =   36
 STRESS PERIOD=  2 TIMESTEP= 43 LAYER=  2 ZONE=  2 ACTIVE CELLS= 1265 NUMBER OF EQUATIONS=    1265
 UBUDSV SAVING "      ZETASRF  1" ON UNIT 55 AT TIME STEP 43, STRESS PERIOD    2

 HEAD WILL BE SAVED ON UNIT   51 AT END OF TIME STEP   43, STRESS PERIOD    2
 
 SOLVING FOR HEAD 
                                                   Max.-Head-Change                         Max.-Flux-Residual
  Residual-Control   Outer-Iter.   Inner-Iter.     Column Row Layer    Maximum-Head-Change  Column Row Layer    Maximum-Flux-Residual          L2-NORM 
          0                 1           1            36   31     2      -0.7147519376E-03      14   31    1         0.4576194591E+00      0.1257545378E+01
          0                 2           1            34   32     2      -0.7490502119E-04      39   29    2        -0.1124764875E-01      0.5304878790E-01
          0                 3           1            37   31     2      -0.4812690429E-04      37   31    2        -0.3563839435E-02      0.2130863580E-01
          0                 4           1            39   29     2      -0.2345974526E-04      39   29    2        -0.1914882433E-02      0.1436202655E-01
          0                 5           1            37   31     2      -0.1981361410E-04      37   31    2        -0.1315929642E-02      0.1164001910E-01
          0                 6           1            39   29     2      -0.1495819696E-04      39   29    2        -0.9764842758E-03      0.9994913248E-02
          0                 7           1            37   31     2      -0.1238308868E-04      37   31    2        -0.8904488869E-03      0.8758522944E-02
          0                 8           1            34   32     2      -0.1102542210E-04      39   29    2        -0.6420801261E-03      0.7727847333E-02
          0                 9           1            37   31     2      -0.9035091536E-05      37   31    2        -0.6824060611E-03      0.6932342013E-02

    ------------------------------------------------
       NWT REQUIRED            9 OUTER ITERATIONS 
       AND A TOTAL OF          9 INNER ITERATIONS.
    ------------------------------------------------

 OUTPUT CONTROL FOR STRESS PERIOD    2   TIME STEP   44
    SAVE HEAD FOR ALL LAYERS
 SOLVING FOR ZETA FOR LAYER     1 ZONE     2

     671 UPPER PART EQS.       671 LOWER PART EQS.    BAND WIDTH + 1 =   27
 STRESS PERIOD=  2 TIMESTEP= 44 LAYER=  1 ZONE=  2 ACTIVE CELLS= 1342 NUMBER OF EQUATIONS=    1342
 SOLVING FOR ZETA FOR LAYER     2 ZONE     2

     629 UPPER PART EQS.       636 LOWER PART EQS.    BAND WIDTH + 1 =   36
 STRESS PERIOD=  2 TIMESTEP= 44 LAYER=  2 ZONE=  2 ACTIVE CELLS= 1265 NUMBER OF EQUATIONS=    1265
 UBUDSV SAVING "      ZETASRF  1" ON UNIT 55 AT TIME STEP 44, STRESS PERIOD    2

 HEAD WILL BE SAVED ON UNIT   51 AT END OF TIME STEP   44, STRESS PERIOD    2
 
 SOLVING FOR HEAD 
                                                   Max.-Head-Change                         Max.-Flux-Residual
  Residual-Control   Outer-Iter.   Inner-Iter.     Column Row Layer    Maximum-Head-Change  Column Row Layer    Maximum-Flux-Residual          L2-NORM 
          0                 1           1            36   31     2      -0.7113714780E-03      56   33    1         0.3000401438E+00      0.1061677690E+01
          0                 2           1            38   30     2      -0.7657334193E-04      39   29    2        -0.1119666079E-01      0.4883466509E-01
          0                 3           1            37   31     2      -0.4798863287E-04      37   31    2        -0.3556379684E-02      0.2152994213E-01
          0                 4           1            39   29     2      -0.2551060816E-04      39   29    2        -0.2145798587E-02      0.1494234928E-01
          0                 5           1            37   31     2      -0.2086743223E-04      37   31    2        -0.1443088749E-02      0.1231961140E-01
          0                 6           1            39   29     2      -0.1615500692E-04      39   29    2        -0.1090086528E-02      0.1060742916E-01
          0                 7           1            37   31     2      -0.1314849100E-04      37   31    2        -0.9871559045E-03      0.9362569920E-02
          0                 8           1            34   32     2      -0.1189106090E-04      39   29    2        -0.7130478406E-03      0.8241570582E-02
          0                 9           1            37   31     2      -0.9670008126E-05      37   31    2        -0.7509103782E-03      0.7412813040E-02

    ------------------------------------------------
       NWT REQUIRED            9 OUTER ITERATIONS 
       AND A TOTAL OF          9 INNER ITERATIONS.
    ------------------------------------------------

 OUTPUT CONTROL FOR STRESS PERIOD    2   TIME STEP   45
    SAVE HEAD FOR ALL LAYERS
 SOLVING FOR ZETA FOR LAYER     1 ZONE     2

     668 UPPER PART EQS.       673 LOWER PART EQS.    BAND WIDTH + 1 =   27
 STRESS PERIOD=  2 TIMESTEP= 45 LAYER=  1 ZONE=  2 ACTIVE CELLS= 1341 NUMBER OF EQUATIONS=    1341
 SOLVING FOR ZETA FOR LAYER     2 ZONE     2

     629 UPPER PART EQS.       636 LOWER PART EQS.    BAND WIDTH + 1 =   36
 STRESS PERIOD=  2 TIMESTEP= 45 LAYER=  2 ZONE=  2 ACTIVE CELLS= 1265 NUMBER OF EQUATIONS=    1265
 UBUDSV SAVING "      ZETASRF  1" ON UNIT 55 AT TIME STEP 45, STRESS PERIOD    2

 HEAD WILL BE SAVED ON UNIT   51 AT END OF TIME STEP   45, STRESS PERIOD    2
 
 SOLVING FOR HEAD 
                                                   Max.-Head-Change                         Max.-Flux-Residual
  Residual-Control   Outer-Iter.   Inner-Iter.     Column Row Layer    Maximum-Head-Change  Column Row Layer    Maximum-Flux-Residual          L2-NORM 
          0                 1           1            36   31     2      -0.7067856838E-03      21   47    1        -0.2713893266E+00      0.8385881549E+00
          0                 2           1            34   32     2      -0.7645776146E-04      39   29    2        -0.1107425700E-01      0.4914066490E-01
          0                 3           1            37   31     2      -0.4490470968E-04      37   31    2        -0.3457636679E-02      0.2094767076E-01
          0                 4           1            39   29     2      -0.2570343671E-04      39   29    2        -0.2047257942E-02      0.1481291059E-01
          0                 5           1            37   31     2      -0.1994416636E-04      37   31    2        -0.1402548508E-02      0.1241567505E-01
          0                 6           1            39   29     2      -0.1634278219E-04      39   29    2        -0.1051513576E-02      0.1081165216E-01
          0                 7           1            37   31     2      -0.1302208655E-04      37   31    2        -0.9803744616E-03      0.9625061047E-02
          0                 8           1            34   32     2      -0.1226404017E-04      39   29    2        -0.7019451989E-03      0.8511410444E-02
          0                 9           1            37   31     2      -0.9794347255E-05      37   31    2        -0.7570475652E-03      0.7689132658E-02

    ------------------------------------------------
       NWT REQUIRED            9 OUTER ITERATIONS 
       AND A TOTAL OF          9 INNER ITERATIONS.
    ------------------------------------------------

 OUTPUT CONTROL FOR STRESS PERIOD    2   TIME STEP   46
    SAVE HEAD FOR ALL LAYERS
 SOLVING FOR ZETA FOR LAYER     1 ZONE     2

     670 UPPER PART EQS.       671 LOWER PART EQS.    BAND WIDTH + 1 =   27
 STRESS PERIOD=  2 TIMESTEP= 46 LAYER=  1 ZONE=  2 ACTIVE CELLS= 1341 NUMBER OF EQUATIONS=    1341
 SOLVING FOR ZETA FOR LAYER     2 ZONE     2

     629 UPPER PART EQS.       636 LOWER PART EQS.    BAND WIDTH + 1 =   36
 STRESS PERIOD=  2 TIMESTEP= 46 LAYER=  2 ZONE=  2 ACTIVE CELLS= 1265 NUMBER OF EQUATIONS=    1265
 UBUDSV SAVING "      ZETASRF  1" ON UNIT 55 AT TIME STEP 46, STRESS PERIOD    2

 HEAD WILL BE SAVED ON UNIT   51 AT END OF TIME STEP   46, STRESS PERIOD    2
 
 SOLVING FOR HEAD 
                                                   Max.-Head-Change                         Max.-Flux-Residual
  Residual-Control   Outer-Iter.   Inner-Iter.     Column Row Layer    Maximum-Head-Change  Column Row Layer    Maximum-Flux-Residual          L2-NORM 
          0                 1           1            36   31     2      -0.7041050871E-03      56   28    1         0.3006918896E+00      0.1034761623E+01
          0                 2           1            38   30     2      -0.7624979551E-04      39   29    2        -0.1102527756E-01      0.4764400761E-01
          0                 3           1            37   31     2      -0.4682605049E-04      37   31    2        -0.3527799496E-02      0.2093091580E-01
          0                 4           1            39   29     2      -0.2548262238E-04      39   29    2        -0.2139229134E-02      0.1449499441E-01
          0                 5           1            37   31     2      -0.2012855110E-04      37   31    2        -0.1442401989E-02      0.1195348880E-01
          0                 6           1            39   29     2      -0.1654604468E-04      39   29    2        -0.1070493650E-02      0.1033166983E-01
          0                 7           1            37   31     2      -0.1246287032E-04      37   31    2        -0.9996876967E-03      0.9165362662E-02
          0                 8           1            34   32     2      -0.1247976597E-04      39   29    2        -0.6922735681E-03      0.8072123506E-02
          0                 9           1            37   31     2      -0.9116238622E-05      37   31    2        -0.7665588286E-03      0.7304264962E-02

    ------------------------------------------------
       NWT REQUIRED            9 OUTER ITERATIONS 
       AND A TOTAL OF          9 INNER ITERATIONS.
    ------------------------------------------------

 OUTPUT CONTROL FOR STRESS PERIOD    2   TIME STEP   47
    SAVE HEAD FOR ALL LAYERS
 SOLVING FOR ZETA FOR LAYER     1 ZONE     2

     676 UPPER PART EQS.       675 LOWER PART EQS.    BAND WIDTH + 1 =   28
 STRESS PERIOD=  2 TIMESTEP= 47 LAYER=  1 ZONE=  2 ACTIVE CELLS= 1351 NUMBER OF EQUATIONS=    1351
 SOLVING FOR ZETA FOR LAYER     2 ZONE     2

     629 UPPER PART EQS.       636 LOWER PART EQS.    BAND WIDTH + 1 =   36
 STRESS PERIOD=  2 TIMESTEP= 47 LAYER=  2 ZONE=  2 ACTIVE CELLS= 1265 NUMBER OF EQUATIONS=    1265
 UBUDSV SAVING "      ZETASRF  1" ON UNIT 55 AT TIME STEP 47, STRESS PERIOD    2

 HEAD WILL BE SAVED ON UNIT   51 AT END OF TIME STEP   47, STRESS PERIOD    2
 
 SOLVING FOR HEAD 
                                                   Max.-Head-Change                         Max.-Flux-Residual
  Residual-Control   Outer-Iter.   Inner-Iter.     Column Row Layer    Maximum-Head-Change  Column Row Layer    Maximum-Flux-Residual          L2-NORM 
          0                 1           1            36   31     2      -0.6984257284E-03      14   30    1        -0.4842955685E+00      0.1341096142E+01
          0                 2           1            38   30     2      -0.7317092670E-04      39   29    2        -0.1087621481E-01      0.5572417518E-01
          0                 3           1            37   31     2      -0.4710710307E-04      37   31    2        -0.3484453116E-02      0.2251200858E-01
          0                 4           1            39   29     2      -0.2503075264E-04      39   29    2        -0.1907334617E-02      0.1561730534E-01
          0                 5           1            37   31     2      -0.2073084991E-04      37   31    2        -0.1333149865E-02      0.1320502675E-01
          0                 6           1            34   32     2      -0.1725973487E-04      39   29    2        -0.1001330270E-02      0.1161285481E-01
          0                 7           1            37   31     2      -0.1326628650E-04      37   31    2        -0.9542395795E-03      0.1042283358E-01
          0                 8           1            34   32     2      -0.1360008188E-04      33   31    2        -0.6946181330E-03      0.9290598084E-02
          0                 9           1            37   31     2      -0.9941489887E-05      37   31    2        -0.7671751139E-03      0.8441363795E-02

    ------------------------------------------------
       NWT REQUIRED            9 OUTER ITERATIONS 
       AND A TOTAL OF          9 INNER ITERATIONS.
    ------------------------------------------------

 OUTPUT CONTROL FOR STRESS PERIOD    2   TIME STEP   48
    SAVE HEAD FOR ALL LAYERS
 SOLVING FOR ZETA FOR LAYER     1 ZONE     2

     674 UPPER PART EQS.       681 LOWER PART EQS.    BAND WIDTH + 1 =   28
 STRESS PERIOD=  2 TIMESTEP= 48 LAYER=  1 ZONE=  2 ACTIVE CELLS= 1355 NUMBER OF EQUATIONS=    1355
 SOLVING FOR ZETA FOR LAYER     2 ZONE     2

     629 UPPER PART EQS.       636 LOWER PART EQS.    BAND WIDTH + 1 =   36
 STRESS PERIOD=  2 TIMESTEP= 48 LAYER=  2 ZONE=  2 ACTIVE CELLS= 1265 NUMBER OF EQUATIONS=    1265
 UBUDSV SAVING "      ZETASRF  1" ON UNIT 55 AT TIME STEP 48, STRESS PERIOD    2

 HEAD WILL BE SAVED ON UNIT   51 AT END OF TIME STEP   48, STRESS PERIOD    2
 
 SOLVING FOR HEAD 
                                                   Max.-Head-Change                         Max.-Flux-Residual
  Residual-Control   Outer-Iter.   Inner-Iter.     Column Row Layer    Maximum-Head-Change  Column Row Layer    Maximum-Flux-Residual          L2-NORM 
          0                 1           1            36   31     2      -0.6957372819E-03      14   30    1         0.4761473533E+00      0.1153677119E+01
          0                 2           1            38   30     2      -0.7337041527E-04      39   29    2        -0.1083439752E-01      0.5454885684E-01
          0                 3           1            37   31     2      -0.5333023315E-04      37   31    2        -0.3550047878E-02      0.2344186083E-01
          0                 4           1            39   29     2      -0.2509570765E-04      39   29    2        -0.2027250321E-02      0.1622072755E-01
          0                 5           1            37   31     2      -0.2296164120E-04      37   31    2        -0.1403231943E-02      0.1305610759E-01
          0                 6           1            39   29     2      -0.1578797507E-04      39   29    2        -0.1101943828E-02      0.1100636185E-01
          0                 7           1            37   31     2      -0.1419687404E-04      37   31    2        -0.9418506940E-03      0.9432868754E-02
          0                 8           1            39   29     2      -0.1122091539E-04      39   29    2        -0.7224157958E-03      0.8210815979E-02
          0                 9           1            37   31     2      -0.1011797926E-04      37   31    2        -0.7119369413E-03      0.7211783656E-02
          0                10           1            34   32     2      -0.8605357962E-05      39   29    2        -0.5164095556E-03      0.6376435939E-02

    ------------------------------------------------
       NWT REQUIRED           10 OUTER ITERATIONS 
       AND A TOTAL OF         10 INNER ITERATIONS.
    ------------------------------------------------

 OUTPUT CONTROL FOR STRESS PERIOD    2   TIME STEP   49
    SAVE HEAD FOR ALL LAYERS
 SOLVING FOR ZETA FOR LAYER     1 ZONE     2

     672 UPPER PART EQS.       679 LOWER PART EQS.    BAND WIDTH + 1 =   28
 STRESS PERIOD=  2 TIMESTEP= 49 LAYER=  1 ZONE=  2 ACTIVE CELLS= 1351 NUMBER OF EQUATIONS=    1351
 SOLVING FOR ZETA FOR LAYER     2 ZONE     2

     629 UPPER PART EQS.       636 LOWER PART EQS.    BAND WIDTH + 1 =   36
 STRESS PERIOD=  2 TIMESTEP= 49 LAYER=  2 ZONE=  2 ACTIVE CELLS= 1265 NUMBER OF EQUATIONS=    1265
 UBUDSV SAVING "      ZETASRF  1" ON UNIT 55 AT TIME STEP 49, STRESS PERIOD    2

 HEAD WILL BE SAVED ON UNIT   51 AT END OF TIME STEP   49, STRESS PERIOD    2
 
 SOLVING FOR HEAD 
                                                   Max.-Head-Change                         Max.-Flux-Residual
  Residual-Control   Outer-Iter.   Inner-Iter.     Column Row Layer    Maximum-Head-Change  Column Row Layer    Maximum-Flux-Residual          L2-NORM 
          0                 1           1            36   31     2      -0.6930398160E-03      36   31    2        -0.2452960014E+00      0.7493961075E+00
          0                 2           1            38   30     2      -0.7508255962E-04      39   29    2        -0.1068884447E-01      0.4700053728E-01
          0                 3           1            37   31     2      -0.4200934491E-04      37   31    2        -0.3300110278E-02      0.1993849819E-01
          0                 4           1            39   29     2      -0.2506972312E-04      39   29    2        -0.1999861036E-02      0.1383050166E-01
          0                 5           1            37   31     2      -0.1867416703E-04      37   31    2        -0.1352469973E-02      0.1146449773E-01
          0                 6           1            34   32     2      -0.1584926376E-04      39   29    2        -0.1002942691E-02      0.9937996675E-02
          0                 7           1            37   31     2      -0.1209136688E-04      37   31    2        -0.9440263987E-03      0.8816132780E-02
          0                 8           1            34   32     2      -0.1184787174E-04      39   29    2        -0.6622528564E-03      0.7805446952E-02
          0                 9           1            37   31     2      -0.9049719667E-05      37   31    2        -0.7297925200E-03      0.7031229196E-02

    ------------------------------------------------
       NWT REQUIRED            9 OUTER ITERATIONS 
       AND A TOTAL OF          9 INNER ITERATIONS.
    ------------------------------------------------

 OUTPUT CONTROL FOR STRESS PERIOD    2   TIME STEP   50
    SAVE HEAD FOR ALL LAYERS
 SOLVING FOR ZETA FOR LAYER     1 ZONE     2

     680 UPPER PART EQS.       669 LOWER PART EQS.    BAND WIDTH + 1 =   40
 STRESS PERIOD=  2 TIMESTEP= 50 LAYER=  1 ZONE=  2 ACTIVE CELLS= 1349 NUMBER OF EQUATIONS=    1349
 SOLVING FOR ZETA FOR LAYER     2 ZONE     2

     629 UPPER PART EQS.       636 LOWER PART EQS.    BAND WIDTH + 1 =   36
 STRESS PERIOD=  2 TIMESTEP= 50 LAYER=  2 ZONE=  2 ACTIVE CELLS= 1265 NUMBER OF EQUATIONS=    1265
 UBUDSV SAVING "      ZETASRF  1" ON UNIT 55 AT TIME STEP 50, STRESS PERIOD    2

 HEAD WILL BE SAVED ON UNIT   51 AT END OF TIME STEP   50, STRESS PERIOD    2
 
 SOLVING FOR HEAD 
                                                   Max.-Head-Change                         Max.-Flux-Residual
  Residual-Control   Outer-Iter.   Inner-Iter.     Column Row Layer    Maximum-Head-Change  Column Row Layer    Maximum-Flux-Residual          L2-NORM 
          0                 1           1            36   31     2      -0.6905261365E-03       8   16    1        -0.3200183203E+00      0.1440415322E+01
          0                 2           1            38   30     2      -0.7244294139E-04      39   29    2        -0.1064247829E-01      0.4953434632E-01
          0                 3           1            37   31     2      -0.4821305450E-04      37   31    2        -0.3471748748E-02      0.2138260005E-01
          0                 4           1            39   29     2      -0.2463735734E-04      39   29    2        -0.2041296539E-02      0.1480788416E-01
          0                 5           1            37   31     2      -0.2075035891E-04      37   31    2        -0.1383171475E-02      0.1222024659E-01
          0                 6           1            39   29     2      -0.1598022799E-04      39   29    2        -0.1046830973E-02      0.1061158252E-01
          0                 7           1            37   31     2      -0.1278038390E-04      37   31    2        -0.9471376218E-03      0.9407548357E-02
          0                 8           1            34   32     2      -0.1225382811E-04      39   29    2        -0.6870256580E-03      0.8338478775E-02
          0                 9           1            37   31     2      -0.9259795364E-05      37   31    2        -0.7291180418E-03      0.7534599771E-02

    ------------------------------------------------
       NWT REQUIRED            9 OUTER ITERATIONS 
       AND A TOTAL OF          9 INNER ITERATIONS.
    ------------------------------------------------

 OUTPUT CONTROL FOR STRESS PERIOD    2   TIME STEP   51
    SAVE HEAD FOR ALL LAYERS
 SOLVING FOR ZETA FOR LAYER     1 ZONE     2

     676 UPPER PART EQS.       683 LOWER PART EQS.    BAND WIDTH + 1 =   27
 STRESS PERIOD=  2 TIMESTEP= 51 LAYER=  1 ZONE=  2 ACTIVE CELLS= 1359 NUMBER OF EQUATIONS=    1359
 SOLVING FOR ZETA FOR LAYER     2 ZONE     2

     629 UPPER PART EQS.       634 LOWER PART EQS.    BAND WIDTH + 1 =   35
 STRESS PERIOD=  2 TIMESTEP= 51 LAYER=  2 ZONE=  2 ACTIVE CELLS= 1263 NUMBER OF EQUATIONS=    1263
 UBUDSV SAVING "      ZETASRF  1" ON UNIT 55 AT TIME STEP 51, STRESS PERIOD    2

 HEAD WILL BE SAVED ON UNIT   51 AT END OF TIME STEP   51, STRESS PERIOD    2
 
 SOLVING FOR HEAD 
                                                   Max.-Head-Change                         Max.-Flux-Residual
  Residual-Control   Outer-Iter.   Inner-Iter.     Column Row Layer    Maximum-Head-Change  Column Row Layer    Maximum-Flux-Residual          L2-NORM 
          0                 1           1            36   31     2      -0.6876316283E-03      36   31    2        -0.2466785908E+00      0.8065362286E+00
          0                 2           1            38   30     2      -0.7296313752E-04      39   29    2        -0.1055118558E-01      0.4752594432E-01
          0                 3           1            37   31     2      -0.4467653316E-04      37   31    2        -0.3362507224E-02      0.1996670392E-01
          0                 4           1            39   29     2      -0.2344609072E-04      39   29    2        -0.1937276111E-02      0.1347103641E-01
          0                 5           1            37   31     2      -0.1892996893E-04      37   31    2        -0.1302302726E-02      0.1087429576E-01
          0                 6           1            39   29     2      -0.1441295462E-04      39   29    2        -0.9587177214E-03      0.9333161699E-02
          0                 7           1            37   31     2      -0.1178959867E-04      37   31    2        -0.8628131180E-03      0.8178885356E-02
          0                 8           1            34   32     2      -0.1060382150E-04      39   29    2        -0.6157053334E-03      0.7243175757E-02
          0                 9           1            37   31     2      -0.8591472287E-05      37   31    2        -0.6481404278E-03      0.6486056685E-02

    ------------------------------------------------
       NWT REQUIRED            9 OUTER ITERATIONS 
       AND A TOTAL OF          9 INNER ITERATIONS.
    ------------------------------------------------

 OUTPUT CONTROL FOR STRESS PERIOD    2   TIME STEP   52
    SAVE HEAD FOR ALL LAYERS
 SOLVING FOR ZETA FOR LAYER     1 ZONE     2

     682 UPPER PART EQS.       687 LOWER PART EQS.    BAND WIDTH + 1 =   27
 STRESS PERIOD=  2 TIMESTEP= 52 LAYER=  1 ZONE=  2 ACTIVE CELLS= 1369 NUMBER OF EQUATIONS=    1369
 SOLVING FOR ZETA FOR LAYER     2 ZONE     2

     629 UPPER PART EQS.       634 LOWER PART EQS.    BAND WIDTH + 1 =   35
 STRESS PERIOD=  2 TIMESTEP= 52 LAYER=  2 ZONE=  2 ACTIVE CELLS= 1263 NUMBER OF EQUATIONS=    1263
 UBUDSV SAVING "      ZETASRF  1" ON UNIT 55 AT TIME STEP 52, STRESS PERIOD    2

 HEAD WILL BE SAVED ON UNIT   51 AT END OF TIME STEP   52, STRESS PERIOD    2
 
 SOLVING FOR HEAD 
                                                   Max.-Head-Change                         Max.-Flux-Residual
  Residual-Control   Outer-Iter.   Inner-Iter.     Column Row Layer    Maximum-Head-Change  Column Row Layer    Maximum-Flux-Residual          L2-NORM 
          0                 1           1            36   31     2      -0.6845783401E-03      14   31    1        -0.4892155156E+00      0.1278820036E+01
          0                 2           1            38   30     2      -0.7163354298E-04      39   29    2        -0.1045910959E-01      0.4946230585E-01
          0                 3           1            37   31     2      -0.4663985948E-04      37   31    2        -0.3380792665E-02      0.2134082640E-01
          0                 4           1            39   29     2      -0.2456387875E-04      39   29    2        -0.1965963337E-02      0.1495345140E-01
          0                 5           1            37   31     2      -0.2051789615E-04      37   31    2        -0.1353766744E-02      0.1251604205E-01
          0                 6           1            34   32     2      -0.1664450043E-04      39   29    2        -0.1021589156E-02      0.1097440223E-01
          0                 7           1            37   31     2      -0.1288792621E-04      37   31    2        -0.9563677611E-03      0.9785649748E-02
          0                 8           1            34   32     2      -0.1300179955E-04      39   29    2        -0.6846153320E-03      0.8717344119E-02
          0                 9           1            37   31     2      -0.9526165362E-05      37   31    2        -0.7546484966E-03      0.7889289116E-02

    ------------------------------------------------
       NWT REQUIRED            9 OUTER ITERATIONS 
       AND A TOTAL OF          9 INNER ITERATIONS.
    ------------------------------------------------

 OUTPUT CONTROL FOR STRESS PERIOD    2   TIME STEP   53
    SAVE HEAD FOR ALL LAYERS
 SOLVING FOR ZETA FOR LAYER     1 ZONE     2

     676 UPPER PART EQS.       692 LOWER PART EQS.    BAND WIDTH + 1 =   35
 STRESS PERIOD=  2 TIMESTEP= 53 LAYER=  1 ZONE=  2 ACTIVE CELLS= 1368 NUMBER OF EQUATIONS=    1368
 SOLVING FOR ZETA FOR LAYER     2 ZONE     2

     629 UPPER PART EQS.       634 LOWER PART EQS.    BAND WIDTH + 1 =   35
 STRESS PERIOD=  2 TIMESTEP= 53 LAYER=  2 ZONE=  2 ACTIVE CELLS= 1263 NUMBER OF EQUATIONS=    1263
 UBUDSV SAVING "      ZETASRF  1" ON UNIT 55 AT TIME STEP 53, STRESS PERIOD    2

 HEAD WILL BE SAVED ON UNIT   51 AT END OF TIME STEP   53, STRESS PERIOD    2
 
 SOLVING FOR HEAD 
                                                   Max.-Head-Change                         Max.-Flux-Residual
  Residual-Control   Outer-Iter.   Inner-Iter.     Column Row Layer    Maximum-Head-Change  Column Row Layer    Maximum-Flux-Residual          L2-NORM 
          0                 1           1            36   31     2      -0.6826850477E-03      14   31    1         0.4794811232E+00      0.1016353630E+01
          0                 2           1            38   30     2      -0.7134459683E-04      39   29    2        -0.1040227502E-01      0.4805471064E-01
          0                 3           1            37   31     2      -0.4804396837E-04      37   31    2        -0.3366623468E-02      0.2051781224E-01
          0                 4           1            39   29     2      -0.2287298781E-04      39   29    2        -0.1922287108E-02      0.1381279254E-01
          0                 5           1            37   31     2      -0.1978520941E-04      37   31    2        -0.1297572379E-02      0.1101722680E-01
          0                 6           1            39   29     2      -0.1444457413E-04      39   29    2        -0.9795198452E-03      0.9311650334E-02
          0                 7           1            37   31     2      -0.1184023422E-04      37   31    2        -0.8704434960E-03      0.8049236795E-02
          0                 8           1            34   32     2      -0.1066408518E-04      39   29    2        -0.6261822760E-03      0.7041749762E-02
          0                 9           1            37   31     2      -0.8291228829E-05      37   31    2        -0.6666299842E-03      0.6268630322E-02

    ------------------------------------------------
       NWT REQUIRED            9 OUTER ITERATIONS 
       AND A TOTAL OF          9 INNER ITERATIONS.
    ------------------------------------------------

 OUTPUT CONTROL FOR STRESS PERIOD    2   TIME STEP   54
    SAVE HEAD FOR ALL LAYERS
 SOLVING FOR ZETA FOR LAYER     1 ZONE     2

     676 UPPER PART EQS.       683 LOWER PART EQS.    BAND WIDTH + 1 =   26
 STRESS PERIOD=  2 TIMESTEP= 54 LAYER=  1 ZONE=  2 ACTIVE CELLS= 1359 NUMBER OF EQUATIONS=    1359
 SOLVING FOR ZETA FOR LAYER     2 ZONE     2

     629 UPPER PART EQS.       634 LOWER PART EQS.    BAND WIDTH + 1 =   35
 STRESS PERIOD=  2 TIMESTEP= 54 LAYER=  2 ZONE=  2 ACTIVE CELLS= 1263 NUMBER OF EQUATIONS=    1263
 UBUDSV SAVING "      ZETASRF  1" ON UNIT 55 AT TIME STEP 54, STRESS PERIOD    2

 HEAD WILL BE SAVED ON UNIT   51 AT END OF TIME STEP   54, STRESS PERIOD    2
 
 SOLVING FOR HEAD 
                                                   Max.-Head-Change                         Max.-Flux-Residual
  Residual-Control   Outer-Iter.   Inner-Iter.     Column Row Layer    Maximum-Head-Change  Column Row Layer    Maximum-Flux-Residual          L2-NORM 
          0                 1           1            36   31     2      -0.6810556803E-03      36   31    2        -0.2493138313E+00      0.6711671261E+00
          0                 2           1            38   30     2      -0.7385926514E-04      39   29    2        -0.1030889261E-01      0.4568132885E-01
          0                 3           1            37   31     2      -0.4148191394E-04      37   31    2        -0.3256811790E-02      0.2026500290E-01
          0                 4           1            39   29     2      -0.2538346882E-04      39   29    2        -0.2062163218E-02      0.1413687860E-01
          0                 5           1            37   31     2      -0.1885007010E-04      37   31    2        -0.1387335998E-02      0.1168545550E-01
          0                 6           1            34   32     2      -0.1657367566E-04      39   29    2        -0.1025027261E-02      0.1014710329E-01
          0                 7           1            37   31     2      -0.1196949868E-04      37   31    2        -0.9745203545E-03      0.9050305496E-02
          0                 8           1            34   32     2      -0.1257994353E-04      39   29    2        -0.6717647632E-03      0.8009743670E-02
          0                 9           1            37   31     2      -0.8913166587E-05      37   31    2        -0.7558686818E-03      0.7262391288E-02

    ------------------------------------------------
       NWT REQUIRED            9 OUTER ITERATIONS 
       AND A TOTAL OF          9 INNER ITERATIONS.
    ------------------------------------------------

 OUTPUT CONTROL FOR STRESS PERIOD    2   TIME STEP   55
    SAVE HEAD FOR ALL LAYERS
 SOLVING FOR ZETA FOR LAYER     1 ZONE     2

     678 UPPER PART EQS.       683 LOWER PART EQS.    BAND WIDTH + 1 =   26
 STRESS PERIOD=  2 TIMESTEP= 55 LAYER=  1 ZONE=  2 ACTIVE CELLS= 1361 NUMBER OF EQUATIONS=    1361
 SOLVING FOR ZETA FOR LAYER     2 ZONE     2

     629 UPPER PART EQS.       634 LOWER PART EQS.    BAND WIDTH + 1 =   35
 STRESS PERIOD=  2 TIMESTEP= 55 LAYER=  2 ZONE=  2 ACTIVE CELLS= 1263 NUMBER OF EQUATIONS=    1263
 UBUDSV SAVING "      ZETASRF  1" ON UNIT 55 AT TIME STEP 55, STRESS PERIOD    2

 HEAD WILL BE SAVED ON UNIT   51 AT END OF TIME STEP   55, STRESS PERIOD    2
 
 SOLVING FOR HEAD 
                                                   Max.-Head-Change                         Max.-Flux-Residual
  Residual-Control   Outer-Iter.   Inner-Iter.     Column Row Layer    Maximum-Head-Change  Column Row Layer    Maximum-Flux-Residual          L2-NORM 
          0                 1           1            36   31     2      -0.6796332595E-03      35   50    2         0.3132897292E+00      0.1064984770E+01
          0                 2           1            38   30     2      -0.7087878199E-04      39   29    2        -0.1026448773E-01      0.4827485861E-01
          0                 3           1            37   31     2      -0.4605960364E-04      37   31    2        -0.3365711559E-02      0.2106560092E-01
          0                 4           1            39   29     2      -0.2498095411E-04      39   29    2        -0.1993977496E-02      0.1478804855E-01
          0                 5           1            37   31     2      -0.2041447692E-04      37   31    2        -0.1379710385E-02      0.1208232664E-01
          0                 6           1            39   29     2      -0.1600703155E-04      39   29    2        -0.1039672309E-02      0.1036995286E-01
          0                 7           1            37   31     2      -0.1269251855E-04      37   31    2        -0.9439528390E-03      0.9083461256E-02
          0                 8           1            34   32     2      -0.1173443060E-04      39   29    2        -0.6771685925E-03      0.7993317807E-02
          0                 9           1            37   31     2      -0.9130176330E-05      37   31    2        -0.7157063857E-03      0.7172623842E-02

    ------------------------------------------------
       NWT REQUIRED            9 OUTER ITERATIONS 
       AND A TOTAL OF          9 INNER ITERATIONS.
    ------------------------------------------------

 OUTPUT CONTROL FOR STRESS PERIOD    2   TIME STEP   56
    SAVE HEAD FOR ALL LAYERS
 SOLVING FOR ZETA FOR LAYER     1 ZONE     2

     684 UPPER PART EQS.       683 LOWER PART EQS.    BAND WIDTH + 1 =   31
 STRESS PERIOD=  2 TIMESTEP= 56 LAYER=  1 ZONE=  2 ACTIVE CELLS= 1367 NUMBER OF EQUATIONS=    1367
 SOLVING FOR ZETA FOR LAYER     2 ZONE     2

     629 UPPER PART EQS.       636 LOWER PART EQS.    BAND WIDTH + 1 =   35
 STRESS PERIOD=  2 TIMESTEP= 56 LAYER=  2 ZONE=  2 ACTIVE CELLS= 1265 NUMBER OF EQUATIONS=    1265
 UBUDSV SAVING "      ZETASRF  1" ON UNIT 55 AT TIME STEP 56, STRESS PERIOD    2

 HEAD WILL BE SAVED ON UNIT   51 AT END OF TIME STEP   56, STRESS PERIOD    2
 
 SOLVING FOR HEAD 
                                                   Max.-Head-Change                         Max.-Flux-Residual
  Residual-Control   Outer-Iter.   Inner-Iter.     Column Row Layer    Maximum-Head-Change  Column Row Layer    Maximum-Flux-Residual          L2-NORM 
          0                 1           1            36   31     2      -0.6776465318E-03      27   12    2         0.3132371912E+00      0.1013491481E+01
          0                 2           1            38   30     2      -0.7143816749E-04      39   29    2        -0.1019942659E-01      0.4477251938E-01
          0                 3           1            37   31     2      -0.4609126710E-04      37   31    2        -0.3303436804E-02      0.2002952371E-01
          0                 4           1            39   29     2      -0.2337412047E-04      39   29    2        -0.2015276420E-02      0.1358884858E-01
          0                 5           1            37   31     2      -0.1939231131E-04      37   31    2        -0.1334016054E-02      0.1090158638E-01
          0                 6           1            39   29     2      -0.1493105981E-04      39   29    2        -0.9996234798E-03      0.9287020980E-02
          0                 7           1            37   31     2      -0.1144851364E-04      37   31    2        -0.9046383003E-03      0.8127755450E-02
          0                 8           1            34   32     2      -0.1121732615E-04      39   29    2        -0.6288759338E-03      0.7143305859E-02
          0                 9           1            37   31     2      -0.8131329096E-05      37   31    2        -0.6840171988E-03      0.6432916119E-02

    ------------------------------------------------
       NWT REQUIRED            9 OUTER ITERATIONS 
       AND A TOTAL OF          9 INNER ITERATIONS.
    ------------------------------------------------

 OUTPUT CONTROL FOR STRESS PERIOD    2   TIME STEP   57
    SAVE HEAD FOR ALL LAYERS
 SOLVING FOR ZETA FOR LAYER     1 ZONE     2

     680 UPPER PART EQS.       693 LOWER PART EQS.    BAND WIDTH + 1 =   32
 STRESS PERIOD=  2 TIMESTEP= 57 LAYER=  1 ZONE=  2 ACTIVE CELLS= 1373 NUMBER OF EQUATIONS=    1373
 SOLVING FOR ZETA FOR LAYER     2 ZONE     2

     629 UPPER PART EQS.       638 LOWER PART EQS.    BAND WIDTH + 1 =   35
 STRESS PERIOD=  2 TIMESTEP= 57 LAYER=  2 ZONE=  2 ACTIVE CELLS= 1267 NUMBER OF EQUATIONS=    1267
 UBUDSV SAVING "      ZETASRF  1" ON UNIT 55 AT TIME STEP 57, STRESS PERIOD    2

 HEAD WILL BE SAVED ON UNIT   51 AT END OF TIME STEP   57, STRESS PERIOD    2
 
 SOLVING FOR HEAD 
                                                   Max.-Head-Change                         Max.-Flux-Residual
  Residual-Control   Outer-Iter.   Inner-Iter.     Column Row Layer    Maximum-Head-Change  Column Row Layer    Maximum-Flux-Residual          L2-NORM 
          0                 1           1            36   31     2      -0.6753894004E-03      36   31    2        -0.2526762486E+00      0.6279294616E+00
          0                 2           1            38   30     2      -0.7213849560E-04      39   29    2        -0.1007519348E-01      0.4341862092E-01
          0                 3           1            37   31     2      -0.4092122352E-04      37   31    2        -0.3148036295E-02      0.1924631837E-01
          0                 4           1            39   29     2      -0.2426533673E-04      39   29    2        -0.1968479813E-02      0.1337803129E-01
          0                 5           1            37   31     2      -0.1800959253E-04      37   31    2        -0.1321653222E-02      0.1092582684E-01
          0                 6           1            34   32     2      -0.1526131158E-04      39   29    2        -0.9736207274E-03      0.9392913040E-02
          0                 7           1            37   31     2      -0.1132320396E-04      37   31    2        -0.9052176144E-03      0.8312074640E-02
          0                 8           1            34   32     2      -0.1133874901E-04      39   29    2        -0.6247219575E-03      0.7316261355E-02
          0                 9           1            37   31     2      -0.8302595057E-05      37   31    2        -0.6882241941E-03      0.6615442419E-02

    ------------------------------------------------
       NWT REQUIRED            9 OUTER ITERATIONS 
       AND A TOTAL OF          9 INNER ITERATIONS.
    ------------------------------------------------

 OUTPUT CONTROL FOR STRESS PERIOD    2   TIME STEP   58
    SAVE HEAD FOR ALL LAYERS
 SOLVING FOR ZETA FOR LAYER     1 ZONE     2

     684 UPPER PART EQS.       685 LOWER PART EQS.    BAND WIDTH + 1 =   29
 STRESS PERIOD=  2 TIMESTEP= 58 LAYER=  1 ZONE=  2 ACTIVE CELLS= 1369 NUMBER OF EQUATIONS=    1369
 SOLVING FOR ZETA FOR LAYER     2 ZONE     2

     629 UPPER PART EQS.       638 LOWER PART EQS.    BAND WIDTH + 1 =   35
 STRESS PERIOD=  2 TIMESTEP= 58 LAYER=  2 ZONE=  2 ACTIVE CELLS= 1267 NUMBER OF EQUATIONS=    1267
 UBUDSV SAVING "      ZETASRF  1" ON UNIT 55 AT TIME STEP 58, STRESS PERIOD    2

 HEAD WILL BE SAVED ON UNIT   51 AT END OF TIME STEP   58, STRESS PERIOD    2
 
 SOLVING FOR HEAD 
                                                   Max.-Head-Change                         Max.-Flux-Residual
  Residual-Control   Outer-Iter.   Inner-Iter.     Column Row Layer    Maximum-Head-Change  Column Row Layer    Maximum-Flux-Residual          L2-NORM 
          0                 1           1            36   31     2      -0.6748362855E-03      56   24    1         0.3068934978E+00      0.9359393122E+00
          0                 2           1            38   30     2      -0.7179779666E-04      39   29    2        -0.1004341500E-01      0.4442826416E-01
          0                 3           1            37   31     2      -0.4208447419E-04      37   31    2        -0.3218472209E-02      0.1974709999E-01
          0                 4           1            39   29     2      -0.2395920323E-04      39   29    2        -0.1996619438E-02      0.1362688384E-01
          0                 5           1            37   31     2      -0.1865221311E-04      37   31    2        -0.1339198998E-02      0.1120347881E-01
          0                 6           1            34   32     2      -0.1581265898E-04      39   29    2        -0.9796274628E-03      0.9721262205E-02
          0                 7           1            37   31     2      -0.1152334058E-04      37   31    2        -0.9255579655E-03      0.8679935813E-02
          0                 8           1            34   32     2      -0.1199786480E-04      39   29    2        -0.6329252338E-03      0.7688698039E-02
          0                 9           1            37   31     2      -0.8484118799E-05      37   31    2        -0.7128572160E-03      0.6998046459E-02

    ------------------------------------------------
       NWT REQUIRED            9 OUTER ITERATIONS 
       AND A TOTAL OF          9 INNER ITERATIONS.
    ------------------------------------------------

 OUTPUT CONTROL FOR STRESS PERIOD    2   TIME STEP   59
    SAVE HEAD FOR ALL LAYERS
 SOLVING FOR ZETA FOR LAYER     1 ZONE     2

     677 UPPER PART EQS.       691 LOWER PART EQS.    BAND WIDTH + 1 =   34
 STRESS PERIOD=  2 TIMESTEP= 59 LAYER=  1 ZONE=  2 ACTIVE CELLS= 1368 NUMBER OF EQUATIONS=    1368
 SOLVING FOR ZETA FOR LAYER     2 ZONE     2

     629 UPPER PART EQS.       638 LOWER PART EQS.    BAND WIDTH + 1 =   35
 STRESS PERIOD=  2 TIMESTEP= 59 LAYER=  2 ZONE=  2 ACTIVE CELLS= 1267 NUMBER OF EQUATIONS=    1267
 UBUDSV SAVING "      ZETASRF  1" ON UNIT 55 AT TIME STEP 59, STRESS PERIOD    2

 HEAD WILL BE SAVED ON UNIT   51 AT END OF TIME STEP   59, STRESS PERIOD    2
 
 SOLVING FOR HEAD 
                                                   Max.-Head-Change                         Max.-Flux-Residual
  Residual-Control   Outer-Iter.   Inner-Iter.     Column Row Layer    Maximum-Head-Change  Column Row Layer    Maximum-Flux-Residual          L2-NORM 
          0                 1           1            36   31     2      -0.6730782142E-03      36   31    2        -0.2552723885E+00      0.7214138993E+00
          0                 2           1            38   30     2      -0.7137758025E-04      39   29    2        -0.9970083876E-02      0.4395827342E-01
          0                 3           1            37   31     2      -0.4291399494E-04      37   31    2        -0.3169081185E-02      0.1950184966E-01
          0                 4           1            39   29     2      -0.2345496507E-04      39   29    2        -0.1966408615E-02      0.1340756880E-01
          0                 5           1            37   31     2      -0.1873937969E-04      37   31    2        -0.1305265437E-02      0.1085772808E-01
          0                 6           1            34   32     2      -0.1499588204E-04      39   29    2        -0.9673980858E-03      0.9321710821E-02
          0                 7           1            37   31     2      -0.1136941791E-04      37   31    2        -0.8881853540E-03      0.8210766901E-02
          0                 8           1            34   32     2      -0.1131174524E-04      33   31    2        -0.6268830776E-03      0.7248208894E-02
          0                 9           1            37   31     2      -0.8216526585E-05      37   31    2        -0.6757358059E-03      0.6534432879E-02

    ------------------------------------------------
       NWT REQUIRED            9 OUTER ITERATIONS 
       AND A TOTAL OF          9 INNER ITERATIONS.
    ------------------------------------------------

 OUTPUT CONTROL FOR STRESS PERIOD    2   TIME STEP   60
    SAVE HEAD FOR ALL LAYERS
 SOLVING FOR ZETA FOR LAYER     1 ZONE     2

     683 UPPER PART EQS.       687 LOWER PART EQS.    BAND WIDTH + 1 =   26
 STRESS PERIOD=  2 TIMESTEP= 60 LAYER=  1 ZONE=  2 ACTIVE CELLS= 1370 NUMBER OF EQUATIONS=    1370
 SOLVING FOR ZETA FOR LAYER     2 ZONE     2

     629 UPPER PART EQS.       638 LOWER PART EQS.    BAND WIDTH + 1 =   35
 STRESS PERIOD=  2 TIMESTEP= 60 LAYER=  2 ZONE=  2 ACTIVE CELLS= 1267 NUMBER OF EQUATIONS=    1267
 UBUDSV SAVING "      ZETASRF  1" ON UNIT 55 AT TIME STEP 60, STRESS PERIOD    2

 HEAD WILL BE SAVED ON UNIT   51 AT END OF TIME STEP   60, STRESS PERIOD    2
 
 SOLVING FOR HEAD 
                                                   Max.-Head-Change                         Max.-Flux-Residual
  Residual-Control   Outer-Iter.   Inner-Iter.     Column Row Layer    Maximum-Head-Change  Column Row Layer    Maximum-Flux-Residual          L2-NORM 
          0                 1           1            36   31     2      -0.6726475785E-03      56   39    1         0.3089769104E+00      0.1076544394E+01
          0                 2           1            38   30     2      -0.6852428337E-04      39   29    2        -0.9891977482E-02      0.4531626741E-01
          0                 3           1            37   31     2      -0.4411136041E-04      37   31    2        -0.3214539296E-02      0.1958235285E-01
          0                 4           1            39   29     2      -0.2361770902E-04      39   29    2        -0.1903207658E-02      0.1362387869E-01
          0                 5           1            37   31     2      -0.1915512486E-04      37   31    2        -0.1326311484E-02      0.1111564309E-01
          0                 6           1            34   32     2      -0.1516698061E-04      39   29    2        -0.9817753357E-03      0.9554777866E-02
          0                 7           1            37   31     2      -0.1177118271E-04      37   31    2        -0.9154634444E-03      0.8409072154E-02
          0                 8           1            34   32     2      -0.1144714690E-04      33   31    2        -0.6417496061E-03      0.7418416355E-02
          0                 9           1            37   31     2      -0.8464725652E-05      37   31    2        -0.7002918225E-03      0.6696636077E-02

    ------------------------------------------------
       NWT REQUIRED            9 OUTER ITERATIONS 
       AND A TOTAL OF          9 INNER ITERATIONS.
    ------------------------------------------------

 OUTPUT CONTROL FOR STRESS PERIOD    2   TIME STEP   61
    SAVE HEAD FOR ALL LAYERS
 SOLVING FOR ZETA FOR LAYER     1 ZONE     2

     683 UPPER PART EQS.       693 LOWER PART EQS.    BAND WIDTH + 1 =   29
 STRESS PERIOD=  2 TIMESTEP= 61 LAYER=  1 ZONE=  2 ACTIVE CELLS= 1376 NUMBER OF EQUATIONS=    1376
 SOLVING FOR ZETA FOR LAYER     2 ZONE     2

     629 UPPER PART EQS.       638 LOWER PART EQS.    BAND WIDTH + 1 =   35
 STRESS PERIOD=  2 TIMESTEP= 61 LAYER=  2 ZONE=  2 ACTIVE CELLS= 1267 NUMBER OF EQUATIONS=    1267
 UBUDSV SAVING "      ZETASRF  1" ON UNIT 55 AT TIME STEP 61, STRESS PERIOD    2

 HEAD WILL BE SAVED ON UNIT   51 AT END OF TIME STEP   61, STRESS PERIOD    2
 
 SOLVING FOR HEAD 
                                                   Max.-Head-Change                         Max.-Flux-Residual
  Residual-Control   Outer-Iter.   Inner-Iter.     Column Row Layer    Maximum-Head-Change  Column Row Layer    Maximum-Flux-Residual          L2-NORM 
          0                 1           1            36   31     2      -0.6715881931E-03      21   47    1         0.2843724196E+00      0.9451296050E+00
          0                 2           1            38   30     2      -0.6872707078E-04      39   29    2        -0.9886795457E-02      0.4821033309E-01
          0                 3           1            37   31     2      -0.4875180366E-04      37   31    2        -0.3296683966E-02      0.2173212723E-01
          0                 4           1            39   29     2      -0.2445814543E-04      39   29    2        -0.2010309600E-02      0.1506255496E-01
          0                 5           1            37   31     2      -0.2176417770E-04      37   31    2        -0.1363286050E-02      0.1220058333E-01
          0                 6           1            39   29     2      -0.1546830632E-04      39   29    2        -0.1054666459E-02      0.1040214692E-01
          0                 7           1            37   31     2      -0.1327147573E-04      37   31    2        -0.9138449147E-03      0.9072096171E-02
          0                 8           1            34   32     2      -0.1132649134E-04      39   29    2        -0.6867400423E-03      0.8006684674E-02
          0                 9           1            37   31     2      -0.9373238942E-05      37   31    2        -0.6866273557E-03      0.7162058747E-02

    ------------------------------------------------
       NWT REQUIRED            9 OUTER ITERATIONS 
       AND A TOTAL OF          9 INNER ITERATIONS.
    ------------------------------------------------

 OUTPUT CONTROL FOR STRESS PERIOD    2   TIME STEP   62
    SAVE HEAD FOR ALL LAYERS
 SOLVING FOR ZETA FOR LAYER     1 ZONE     2

     683 UPPER PART EQS.       685 LOWER PART EQS.    BAND WIDTH + 1 =   28
 STRESS PERIOD=  2 TIMESTEP= 62 LAYER=  1 ZONE=  2 ACTIVE CELLS= 1368 NUMBER OF EQUATIONS=    1368
 SOLVING FOR ZETA FOR LAYER     2 ZONE     2

     629 UPPER PART EQS.       638 LOWER PART EQS.    BAND WIDTH + 1 =   35
 STRESS PERIOD=  2 TIMESTEP= 62 LAYER=  2 ZONE=  2 ACTIVE CELLS= 1267 NUMBER OF EQUATIONS=    1267
 UBUDSV SAVING "      ZETASRF  1" ON UNIT 55 AT TIME STEP 62, STRESS PERIOD    2

 HEAD WILL BE SAVED ON UNIT   51 AT END OF TIME STEP   62, STRESS PERIOD    2
 
 SOLVING FOR HEAD 
                                                   Max.-Head-Change                         Max.-Flux-Residual
  Residual-Control   Outer-Iter.   Inner-Iter.     Column Row Layer    Maximum-Head-Change  Column Row Layer    Maximum-Flux-Residual          L2-NORM 
          0                 1           1            36   31     2      -0.6713014598E-03      36   31    2        -0.2597057819E+00      0.9434463346E+00
          0                 2           1            38   30     2      -0.6714738515E-04      39   29    2        -0.9794768365E-02      0.4674507381E-01
          0                 3           1            37   31     2      -0.4282439572E-04      37   31    2        -0.3199001891E-02      0.1937249554E-01
          0                 4           1            39   29     2      -0.2229760883E-04      39   29    2        -0.1767970913E-02      0.1319431919E-01
          0                 5           1            37   31     2      -0.1829530300E-04      37   31    2        -0.1230627438E-02      0.1088198522E-01
          0                 6           1            34   32     2      -0.1453594540E-04      39   29    2        -0.8970020514E-03      0.9474144994E-02
          0                 7           1            37   31     2      -0.1153648156E-04      37   31    2        -0.8341172478E-03      0.8429881274E-02
          0                 8           1            34   32     2      -0.1090625293E-04      33   31    2        -0.6263655170E-03      0.7501061041E-02
          0                 9           1            37   31     2      -0.8524982980E-05      37   31    2        -0.6417237059E-03      0.6794735255E-02

    ------------------------------------------------
       NWT REQUIRED            9 OUTER ITERATIONS 
       AND A TOTAL OF          9 INNER ITERATIONS.
    ------------------------------------------------

 OUTPUT CONTROL FOR STRESS PERIOD    2   TIME STEP   63
    SAVE HEAD FOR ALL LAYERS
 SOLVING FOR ZETA FOR LAYER     1 ZONE     2

     681 UPPER PART EQS.       689 LOWER PART EQS.    BAND WIDTH + 1 =   27
 STRESS PERIOD=  2 TIMESTEP= 63 LAYER=  1 ZONE=  2 ACTIVE CELLS= 1370 NUMBER OF EQUATIONS=    1370
 SOLVING FOR ZETA FOR LAYER     2 ZONE     2

     629 UPPER PART EQS.       638 LOWER PART EQS.    BAND WIDTH + 1 =   35
 STRESS PERIOD=  2 TIMESTEP= 63 LAYER=  2 ZONE=  2 ACTIVE CELLS= 1267 NUMBER OF EQUATIONS=    1267
 UBUDSV SAVING "      ZETASRF  1" ON UNIT 55 AT TIME STEP 63, STRESS PERIOD    2

 HEAD WILL BE SAVED ON UNIT   51 AT END OF TIME STEP   63, STRESS PERIOD    2
 
 SOLVING FOR HEAD 
                                                   Max.-Head-Change                         Max.-Flux-Residual
  Residual-Control   Outer-Iter.   Inner-Iter.     Column Row Layer    Maximum-Head-Change  Column Row Layer    Maximum-Flux-Residual          L2-NORM 
          0                 1           1            36   31     2      -0.6711101678E-03      12   27    2         0.3138930236E+00      0.1066364143E+01
          0                 2           1            38   30     2      -0.6711069697E-04      39   29    2        -0.9744436469E-02      0.4470193765E-01
          0                 3           1            37   31     2      -0.4545467459E-04      37   31    2        -0.3225181661E-02      0.1931502209E-01
          0                 4           1            39   29     2      -0.2093855715E-04      39   29    2        -0.1866940235E-02      0.1272140541E-01
          0                 5           1            37   31     2      -0.1893810148E-04      37   31    2        -0.1231983556E-02      0.1003278913E-01
          0                 6           1            34   32     2      -0.1301017896E-04      39   29    2        -0.9072719809E-03      0.8538581341E-02
          0                 7           1            37   31     2      -0.1089442542E-04      37   31    2        -0.8013888827E-03      0.7456788236E-02
          0                 8           1            34   32     2      -0.9790058736E-05      33   31    2        -0.5749990159E-03      0.6612473071E-02

    ------------------------------------------------
       NWT REQUIRED            8 OUTER ITERATIONS 
       AND A TOTAL OF          8 INNER ITERATIONS.
    ------------------------------------------------

 OUTPUT CONTROL FOR STRESS PERIOD    2   TIME STEP   64
    SAVE HEAD FOR ALL LAYERS
 SOLVING FOR ZETA FOR LAYER     1 ZONE     2

     684 UPPER PART EQS.       693 LOWER PART EQS.    BAND WIDTH + 1 =   30
 STRESS PERIOD=  2 TIMESTEP= 64 LAYER=  1 ZONE=  2 ACTIVE CELLS= 1377 NUMBER OF EQUATIONS=    1377
 SOLVING FOR ZETA FOR LAYER     2 ZONE     2

     629 UPPER PART EQS.       640 LOWER PART EQS.    BAND WIDTH + 1 =   35
 STRESS PERIOD=  2 TIMESTEP= 64 LAYER=  2 ZONE=  2 ACTIVE CELLS= 1269 NUMBER OF EQUATIONS=    1269
 UBUDSV SAVING "      ZETASRF  1" ON UNIT 55 AT TIME STEP 64, STRESS PERIOD    2

 HEAD WILL BE SAVED ON UNIT   51 AT END OF TIME STEP   64, STRESS PERIOD    2
 
 SOLVING FOR HEAD 
                                                   Max.-Head-Change                         Max.-Flux-Residual
  Residual-Control   Outer-Iter.   Inner-Iter.     Column Row Layer    Maximum-Head-Change  Column Row Layer    Maximum-Flux-Residual          L2-NORM 
          0                 1           1            36   31     2      -0.6712976608E-03      36   31    2        -0.2630205154E+00      0.7343538804E+00
          0                 2           1            38   30     2      -0.6865317746E-04      39   29    2        -0.9698485720E-02      0.4336188376E-01
          0                 3           1            37   31     2      -0.4258380459E-04      37   31    2        -0.3141453057E-02      0.1940336188E-01
          0                 4           1            39   29     2      -0.2371167428E-04      39   29    2        -0.1941659210E-02      0.1360778953E-01
          0                 5           1            37   31     2      -0.1883089304E-04      37   31    2        -0.1330469480E-02      0.1106126061E-01
          0                 6           1            34   32     2      -0.1490499133E-04      39   29    2        -0.9878639711E-03      0.9452862574E-02
          0                 7           1            37   31     2      -0.1172600550E-04      37   31    2        -0.9062208649E-03      0.8294981651E-02
          0                 8           1            34   32     2      -0.1103862797E-04      33   31    2        -0.6405821210E-03      0.7293593271E-02
          0                 9           1            37   31     2      -0.8483317656E-05      37   31    2        -0.6824153119E-03      0.6563781076E-02

    ------------------------------------------------
       NWT REQUIRED            9 OUTER ITERATIONS 
       AND A TOTAL OF          9 INNER ITERATIONS.
    ------------------------------------------------

 OUTPUT CONTROL FOR STRESS PERIOD    2   TIME STEP   65
    SAVE HEAD FOR ALL LAYERS
 SOLVING FOR ZETA FOR LAYER     1 ZONE     2

     683 UPPER PART EQS.       689 LOWER PART EQS.    BAND WIDTH + 1 =   26
 STRESS PERIOD=  2 TIMESTEP= 65 LAYER=  1 ZONE=  2 ACTIVE CELLS= 1372 NUMBER OF EQUATIONS=    1372
 SOLVING FOR ZETA FOR LAYER     2 ZONE     2

     629 UPPER PART EQS.       640 LOWER PART EQS.    BAND WIDTH + 1 =   35
 STRESS PERIOD=  2 TIMESTEP= 65 LAYER=  2 ZONE=  2 ACTIVE CELLS= 1269 NUMBER OF EQUATIONS=    1269
 UBUDSV SAVING "      ZETASRF  1" ON UNIT 55 AT TIME STEP 65, STRESS PERIOD    2

 HEAD WILL BE SAVED ON UNIT   51 AT END OF TIME STEP   65, STRESS PERIOD    2
 
 SOLVING FOR HEAD 
                                                   Max.-Head-Change                         Max.-Flux-Residual
  Residual-Control   Outer-Iter.   Inner-Iter.     Column Row Layer    Maximum-Head-Change  Column Row Layer    Maximum-Flux-Residual          L2-NORM 
          0                 1           1            36   31     2      -0.6703459985E-03      36   31    2        -0.2647297382E+00      0.6259618191E+00
          0                 2           1            38   30     2      -0.6929073515E-04      39   29    2        -0.9617823576E-02      0.4106375664E-01
          0                 3           1            37   31     2      -0.4114738329E-04      37   31    2        -0.3081837367E-02      0.1873260881E-01
          0                 4           1            39   29     2      -0.2290867775E-04      39   29    2        -0.1960819326E-02      0.1287960025E-01
          0                 5           1            37   31     2      -0.1802329145E-04      37   31    2        -0.1302319285E-02      0.1030081864E-01
          0                 6           1            34   32     2      -0.1449496301E-04      39   29    2        -0.9544902362E-03      0.8776582475E-02
          0                 7           1            37   31     2      -0.1080511265E-04      37   31    2        -0.8779472741E-03      0.7686789565E-02
          0                 8           1            34   32     2      -0.1077061036E-04      33   31    2        -0.6007096667E-03      0.6769646172E-02
          0                 9           1            37   31     2      -0.7705071700E-05      37   31    2        -0.6580695307E-03      0.6112662802E-02

    ------------------------------------------------
       NWT REQUIRED            9 OUTER ITERATIONS 
       AND A TOTAL OF          9 INNER ITERATIONS.
    ------------------------------------------------

 OUTPUT CONTROL FOR STRESS PERIOD    2   TIME STEP   66
    SAVE HEAD FOR ALL LAYERS
 SOLVING FOR ZETA FOR LAYER     1 ZONE     2

     683 UPPER PART EQS.       687 LOWER PART EQS.    BAND WIDTH + 1 =   27
 STRESS PERIOD=  2 TIMESTEP= 66 LAYER=  1 ZONE=  2 ACTIVE CELLS= 1370 NUMBER OF EQUATIONS=    1370
 SOLVING FOR ZETA FOR LAYER     2 ZONE     2

     629 UPPER PART EQS.       640 LOWER PART EQS.    BAND WIDTH + 1 =   35
 STRESS PERIOD=  2 TIMESTEP= 66 LAYER=  2 ZONE=  2 ACTIVE CELLS= 1269 NUMBER OF EQUATIONS=    1269
 UBUDSV SAVING "      ZETASRF  1" ON UNIT 55 AT TIME STEP 66, STRESS PERIOD    2

 HEAD WILL BE SAVED ON UNIT   51 AT END OF TIME STEP   66, STRESS PERIOD    2
 
 SOLVING FOR HEAD 
                                                   Max.-Head-Change                         Max.-Flux-Residual
  Residual-Control   Outer-Iter.   Inner-Iter.     Column Row Layer    Maximum-Head-Change  Column Row Layer    Maximum-Flux-Residual          L2-NORM 
          0                 1           1            36   31     2      -0.6696137717E-03      33    6    1         0.3135455434E+00      0.1043985552E+01
          0                 2           1            38   30     2      -0.6661745925E-04      39   29    2        -0.9566395023E-02      0.4753576860E-01
          0                 3           1            37   31     2      -0.4400799152E-04      37   31    2        -0.3147211777E-02      0.2091088481E-01
          0                 4           1            39   29     2      -0.2331984652E-04      39   29    2        -0.1878921885E-02      0.1444996593E-01
          0                 5           1            37   31     2      -0.2042291893E-04      37   31    2        -0.1279282220E-02      0.1195015676E-01
          0                 6           1            34   32     2      -0.1512964720E-04      39   29    2        -0.9682823668E-03      0.1044699005E-01
          0                 7           1            37   31     2      -0.1299875635E-04      37   31    2        -0.8679465029E-03      0.9278999140E-02
          0                 8           1            34   32     2      -0.1146881989E-04      33   31    2        -0.6854523211E-03      0.8324753421E-02
          0                 9           1            37   31     2      -0.9598563019E-05      37   31    2        -0.6690609056E-03      0.7499125552E-02

    ------------------------------------------------
       NWT REQUIRED            9 OUTER ITERATIONS 
       AND A TOTAL OF          9 INNER ITERATIONS.
    ------------------------------------------------

 OUTPUT CONTROL FOR STRESS PERIOD    2   TIME STEP   67
    SAVE HEAD FOR ALL LAYERS
 SOLVING FOR ZETA FOR LAYER     1 ZONE     2

     675 UPPER PART EQS.       692 LOWER PART EQS.    BAND WIDTH + 1 =   36
 STRESS PERIOD=  2 TIMESTEP= 67 LAYER=  1 ZONE=  2 ACTIVE CELLS= 1367 NUMBER OF EQUATIONS=    1367
 SOLVING FOR ZETA FOR LAYER     2 ZONE     2

     629 UPPER PART EQS.       640 LOWER PART EQS.    BAND WIDTH + 1 =   35
 STRESS PERIOD=  2 TIMESTEP= 67 LAYER=  2 ZONE=  2 ACTIVE CELLS= 1269 NUMBER OF EQUATIONS=    1269
 UBUDSV SAVING "      ZETASRF  1" ON UNIT 55 AT TIME STEP 67, STRESS PERIOD    2

 HEAD WILL BE SAVED ON UNIT   51 AT END OF TIME STEP   67, STRESS PERIOD    2
 
 SOLVING FOR HEAD 
                                                   Max.-Head-Change                         Max.-Flux-Residual
  Residual-Control   Outer-Iter.   Inner-Iter.     Column Row Layer    Maximum-Head-Change  Column Row Layer    Maximum-Flux-Residual          L2-NORM 
          0                 1           1            36   31     2      -0.6706876221E-03      15   41    1         0.2832729812E+00      0.9367600432E+00
          0                 2           1            38   30     2      -0.6628423151E-04      39   29    2        -0.9543325804E-02      0.4390473139E-01
          0                 3           1            37   31     2      -0.4459227230E-04      37   31    2        -0.3147770801E-02      0.1904920669E-01
          0                 4           1            39   29     2      -0.2088452585E-04      39   29    2        -0.1811893467E-02      0.1265797071E-01
          0                 5           1            37   31     2      -0.1825731859E-04      37   31    2        -0.1215312570E-02      0.9879586326E-02
          0                 6           1            39   29     2      -0.1274003033E-04      39   29    2        -0.8871801408E-03      0.8268241536E-02
          0                 7           1            37   31     2      -0.1066470682E-04      37   31    2        -0.7846765958E-03      0.7088147642E-02
          0                 8           1            34   32     2      -0.9338101407E-05      33   31    2        -0.5566532571E-03      0.6186182852E-02

    ------------------------------------------------
       NWT REQUIRED            8 OUTER ITERATIONS 
       AND A TOTAL OF          8 INNER ITERATIONS.
    ------------------------------------------------

 OUTPUT CONTROL FOR STRESS PERIOD    2   TIME STEP   68
    SAVE HEAD FOR ALL LAYERS
 SOLVING FOR ZETA FOR LAYER     1 ZONE     2

     685 UPPER PART EQS.       692 LOWER PART EQS.    BAND WIDTH + 1 =   27
 STRESS PERIOD=  2 TIMESTEP= 68 LAYER=  1 ZONE=  2 ACTIVE CELLS= 1377 NUMBER OF EQUATIONS=    1377
 SOLVING FOR ZETA FOR LAYER     2 ZONE     2

     629 UPPER PART EQS.       640 LOWER PART EQS.    BAND WIDTH + 1 =   35
 STRESS PERIOD=  2 TIMESTEP= 68 LAYER=  2 ZONE=  2 ACTIVE CELLS= 1269 NUMBER OF EQUATIONS=    1269
 UBUDSV SAVING "      ZETASRF  1" ON UNIT 55 AT TIME STEP 68, STRESS PERIOD    2

 HEAD WILL BE SAVED ON UNIT   51 AT END OF TIME STEP   68, STRESS PERIOD    2
 
 SOLVING FOR HEAD 
                                                   Max.-Head-Change                         Max.-Flux-Residual
  Residual-Control   Outer-Iter.   Inner-Iter.     Column Row Layer    Maximum-Head-Change  Column Row Layer    Maximum-Flux-Residual          L2-NORM 
          0                 1           1            36   31     2      -0.6719357544E-03      35    6    1         0.3142331365E+00      0.1020826357E+01
          0                 2           1            38   30     2      -0.6640650570E-04      39   29    2        -0.9472981964E-02      0.4136841102E-01
          0                 3           1            37   31     2      -0.4192817446E-04      37   31    2        -0.3088599417E-02      0.1863702569E-01
          0                 4           1            39   29     2      -0.2229052820E-04      39   29    2        -0.1901310458E-02      0.1282070243E-01
          0                 5           1            37   31     2      -0.1832637631E-04      37   31    2        -0.1293264819E-02      0.1020854096E-01
          0                 6           1            39   29     2      -0.1363789087E-04      39   29    2        -0.9579219756E-03      0.8587484455E-02
          0                 7           1            37   31     2      -0.1107137896E-04      37   31    2        -0.8641273089E-03      0.7428628413E-02
          0                 8           1            34   32     2      -0.9921553750E-05      39   29    2        -0.5992168997E-03      0.6482336919E-02

    ------------------------------------------------
       NWT REQUIRED            8 OUTER ITERATIONS 
       AND A TOTAL OF          8 INNER ITERATIONS.
    ------------------------------------------------

 OUTPUT CONTROL FOR STRESS PERIOD    2   TIME STEP   69
    SAVE HEAD FOR ALL LAYERS
 SOLVING FOR ZETA FOR LAYER     1 ZONE     2

     686 UPPER PART EQS.       701 LOWER PART EQS.    BAND WIDTH + 1 =   33
 STRESS PERIOD=  2 TIMESTEP= 69 LAYER=  1 ZONE=  2 ACTIVE CELLS= 1387 NUMBER OF EQUATIONS=    1387
 SOLVING FOR ZETA FOR LAYER     2 ZONE     2

     629 UPPER PART EQS.       640 LOWER PART EQS.    BAND WIDTH + 1 =   35
 STRESS PERIOD=  2 TIMESTEP= 69 LAYER=  2 ZONE=  2 ACTIVE CELLS= 1269 NUMBER OF EQUATIONS=    1269
 UBUDSV SAVING "      ZETASRF  1" ON UNIT 55 AT TIME STEP 69, STRESS PERIOD    2

 HEAD WILL BE SAVED ON UNIT   51 AT END OF TIME STEP   69, STRESS PERIOD    2
 
 SOLVING FOR HEAD 
                                                   Max.-Head-Change                         Max.-Flux-Residual
  Residual-Control   Outer-Iter.   Inner-Iter.     Column Row Layer    Maximum-Head-Change  Column Row Layer    Maximum-Flux-Residual          L2-NORM 
          0                 1           1            36   31     2      -0.6728577058E-03      31   56    1         0.3139137634E+00      0.1040897213E+01
          0                 2           1            38   30     2      -0.6860177453E-04      39   29    2        -0.9486257368E-02      0.4189732094E-01
          0                 3           1            37   31     2      -0.4167190760E-04      37   31    2        -0.3133548315E-02      0.1959501047E-01
          0                 4           1            39   29     2      -0.2397683915E-04      39   29    2        -0.2005792619E-02      0.1375041133E-01
          0                 5           1            37   31     2      -0.1923388935E-04      37   31    2        -0.1361497136E-02      0.1120742385E-01
          0                 6           1            34   32     2      -0.1538483541E-04      39   29    2        -0.1008234118E-02      0.9653311012E-02
          0                 7           1            37   31     2      -0.1206826164E-04      37   31    2        -0.9295218216E-03      0.8515860442E-02
          0                 8           1            34   32     2      -0.1142734875E-04      33   31    2        -0.6724920698E-03      0.7550608114E-02
          0                 9           1            37   31     2      -0.8837700180E-05      37   31    2        -0.7048112369E-03      0.6801285152E-02

    ------------------------------------------------
       NWT REQUIRED            9 OUTER ITERATIONS 
       AND A TOTAL OF          9 INNER ITERATIONS.
    ------------------------------------------------

 OUTPUT CONTROL FOR STRESS PERIOD    2   TIME STEP   70
    SAVE HEAD FOR ALL LAYERS
 SOLVING FOR ZETA FOR LAYER     1 ZONE     2

     687 UPPER PART EQS.       687 LOWER PART EQS.    BAND WIDTH + 1 =   33
 STRESS PERIOD=  2 TIMESTEP= 70 LAYER=  1 ZONE=  2 ACTIVE CELLS= 1374 NUMBER OF EQUATIONS=    1374
 SOLVING FOR ZETA FOR LAYER     2 ZONE     2

     629 UPPER PART EQS.       640 LOWER PART EQS.    BAND WIDTH + 1 =   35
 STRESS PERIOD=  2 TIMESTEP= 70 LAYER=  2 ZONE=  2 ACTIVE CELLS= 1269 NUMBER OF EQUATIONS=    1269
 UBUDSV SAVING "      ZETASRF  1" ON UNIT 55 AT TIME STEP 70, STRESS PERIOD    2

 HEAD WILL BE SAVED ON UNIT   51 AT END OF TIME STEP   70, STRESS PERIOD    2
 
 SOLVING FOR HEAD 
                                                   Max.-Head-Change                         Max.-Flux-Residual
  Residual-Control   Outer-Iter.   Inner-Iter.     Column Row Layer    Maximum-Head-Change  Column Row Layer    Maximum-Flux-Residual          L2-NORM 
          0                 1           1            36   31     2      -0.6722455322E-03      50   27    2         0.3175709021E+00      0.1417309994E+01
          0                 2           1            38   30     2      -0.6385034945E-04      39   29    2        -0.9360792129E-02      0.4422730319E-01
          0                 3           1            37   31     2      -0.4482840680E-04      37   31    2        -0.3127632652E-02      0.1970787141E-01
          0                 4           1            39   29     2      -0.2280137851E-04      39   29    2        -0.1848839598E-02      0.1408403716E-01
          0                 5           1            37   31     2      -0.2048290595E-04      37   31    2        -0.1303913943E-02      0.1168255172E-01
          0                 6           1            34   32     2      -0.1441447485E-04      39   29    2        -0.1005834656E-02      0.1015896747E-01
          0                 7           1            37   31     2      -0.1313692532E-04      37   31    2        -0.8900339935E-03      0.8941932535E-02
          0                 8           1            34   32     2      -0.1080971942E-04      33   31    2        -0.6831484369E-03      0.7981051047E-02
          0                 9           1            37   31     2      -0.9595102596E-05      37   31    2        -0.6776170406E-03      0.7150523250E-02

    ------------------------------------------------
       NWT REQUIRED            9 OUTER ITERATIONS 
       AND A TOTAL OF          9 INNER ITERATIONS.
    ------------------------------------------------

 OUTPUT CONTROL FOR STRESS PERIOD    2   TIME STEP   71
    SAVE HEAD FOR ALL LAYERS
 SOLVING FOR ZETA FOR LAYER     1 ZONE     2

     683 UPPER PART EQS.       697 LOWER PART EQS.    BAND WIDTH + 1 =   34
 STRESS PERIOD=  2 TIMESTEP= 71 LAYER=  1 ZONE=  2 ACTIVE CELLS= 1380 NUMBER OF EQUATIONS=    1380
 SOLVING FOR ZETA FOR LAYER     2 ZONE     2

     629 UPPER PART EQS.       642 LOWER PART EQS.    BAND WIDTH + 1 =   35
 STRESS PERIOD=  2 TIMESTEP= 71 LAYER=  2 ZONE=  2 ACTIVE CELLS= 1271 NUMBER OF EQUATIONS=    1271
 UBUDSV SAVING "      ZETASRF  1" ON UNIT 55 AT TIME STEP 71, STRESS PERIOD    2

 HEAD WILL BE SAVED ON UNIT   51 AT END OF TIME STEP   71, STRESS PERIOD    2
 
 SOLVING FOR HEAD 
                                                   Max.-Head-Change                         Max.-Flux-Residual
  Residual-Control   Outer-Iter.   Inner-Iter.     Column Row Layer    Maximum-Head-Change  Column Row Layer    Maximum-Flux-Residual          L2-NORM 
          0                 1           1            36   31     2      -0.6731646351E-03      29    6    1         0.3146509772E+00      0.1013150901E+01
          0                 2           1            38   30     2      -0.6544629983E-04      39   29    2        -0.9383629914E-02      0.4387693584E-01
          0                 3           1            37   31     2      -0.4643492844E-04      37   31    2        -0.3167295480E-02      0.1969050597E-01
          0                 4           1            39   29     2      -0.2103911712E-04      39   29    2        -0.1896351939E-02      0.1305177925E-01
          0                 5           1            37   31     2      -0.1968440537E-04      37   31    2        -0.1248894312E-02      0.1028451619E-01
          0                 6           1            34   32     2      -0.1305995537E-04      39   29    2        -0.9323963515E-03      0.8689222648E-02
          0                 7           1            37   31     2      -0.1128093978E-04      37   31    2        -0.8122627544E-03      0.7535233804E-02
          0                 8           1            34   32     2      -0.9753663229E-05      33   31    2        -0.5899801337E-03      0.6654115779E-02

    ------------------------------------------------
       NWT REQUIRED            8 OUTER ITERATIONS 
       AND A TOTAL OF          8 INNER ITERATIONS.
    ------------------------------------------------

 OUTPUT CONTROL FOR STRESS PERIOD    2   TIME STEP   72
    SAVE HEAD FOR ALL LAYERS
 SOLVING FOR ZETA FOR LAYER     1 ZONE     2

     685 UPPER PART EQS.       704 LOWER PART EQS.    BAND WIDTH + 1 =   39
 STRESS PERIOD=  2 TIMESTEP= 72 LAYER=  1 ZONE=  2 ACTIVE CELLS= 1389 NUMBER OF EQUATIONS=    1389
 SOLVING FOR ZETA FOR LAYER     2 ZONE     2

     629 UPPER PART EQS.       642 LOWER PART EQS.    BAND WIDTH + 1 =   35
 STRESS PERIOD=  2 TIMESTEP= 72 LAYER=  2 ZONE=  2 ACTIVE CELLS= 1271 NUMBER OF EQUATIONS=    1271
 UBUDSV SAVING "      ZETASRF  1" ON UNIT 55 AT TIME STEP 72, STRESS PERIOD    2

 HEAD WILL BE SAVED ON UNIT   51 AT END OF TIME STEP   72, STRESS PERIOD    2
 
 SOLVING FOR HEAD 
                                                   Max.-Head-Change                         Max.-Flux-Residual
  Residual-Control   Outer-Iter.   Inner-Iter.     Column Row Layer    Maximum-Head-Change  Column Row Layer    Maximum-Flux-Residual          L2-NORM 
          0                 1           1            36   31     2      -0.6749904288E-03      36    6    1         0.3112342195E+00      0.1118070478E+01
          0                 2           1            38   30     2      -0.6325030305E-04      39   29    2        -0.9301248203E-02      0.4216154231E-01
          0                 3           1            37   31     2      -0.4291865409E-04      37   31    2        -0.3095504617E-02      0.1839437254E-01
          0                 4           1            39   29     2      -0.2136873298E-04      39   29    2        -0.1780753660E-02      0.1265142602E-01
          0                 5           1            37   31     2      -0.1831939420E-04      37   31    2        -0.1248356850E-02      0.1010423348E-01
          0                 6           1            39   29     2      -0.1308581993E-04      39   29    2        -0.9176622550E-03      0.8537677941E-02
          0                 7           1            37   31     2      -0.1125389967E-04      37   31    2        -0.8241352178E-03      0.7391912628E-02
          0                 8           1            34   32     2      -0.9465284274E-05      33   31    2        -0.5916560307E-03      0.6484366806E-02

    ------------------------------------------------
       NWT REQUIRED            8 OUTER ITERATIONS 
       AND A TOTAL OF          8 INNER ITERATIONS.
    ------------------------------------------------

 OUTPUT CONTROL FOR STRESS PERIOD    2   TIME STEP   73
    SAVE HEAD FOR ALL LAYERS
 SOLVING FOR ZETA FOR LAYER     1 ZONE     2

     696 UPPER PART EQS.       701 LOWER PART EQS.    BAND WIDTH + 1 =   26
 STRESS PERIOD=  2 TIMESTEP= 73 LAYER=  1 ZONE=  2 ACTIVE CELLS= 1397 NUMBER OF EQUATIONS=    1397
 SOLVING FOR ZETA FOR LAYER     2 ZONE     2

     629 UPPER PART EQS.       642 LOWER PART EQS.    BAND WIDTH + 1 =   35
 STRESS PERIOD=  2 TIMESTEP= 73 LAYER=  2 ZONE=  2 ACTIVE CELLS= 1271 NUMBER OF EQUATIONS=    1271
 UBUDSV SAVING "      ZETASRF  1" ON UNIT 55 AT TIME STEP 73, STRESS PERIOD    2

 HEAD WILL BE SAVED ON UNIT   51 AT END OF TIME STEP   73, STRESS PERIOD    2
 
 SOLVING FOR HEAD 
                                                   Max.-Head-Change                         Max.-Flux-Residual
  Residual-Control   Outer-Iter.   Inner-Iter.     Column Row Layer    Maximum-Head-Change  Column Row Layer    Maximum-Flux-Residual          L2-NORM 
          0                 1           1            36   31     2      -0.6753345676E-03      36   56    1         0.3113603857E+00      0.8154353805E+00
          0                 2           1            38   30     2      -0.6666432474E-04      39   29    2        -0.9277423843E-02      0.4079422852E-01
          0                 3           1            37   31     2      -0.4193740260E-04      37   31    2        -0.3032807689E-02      0.1908248849E-01
          0                 4           1            39   29     2      -0.2308895292E-04      39   29    2        -0.1947267071E-02      0.1330462341E-01
          0                 5           1            37   31     2      -0.1903196468E-04      37   31    2        -0.1309370357E-02      0.1076373234E-01
          0                 6           1            34   32     2      -0.1437348071E-04      39   29    2        -0.9860670051E-03      0.9201815411E-02
          0                 7           1            37   31     2      -0.1192457354E-04      37   31    2        -0.8772485281E-03      0.8067765631E-02
          0                 8           1            34   32     2      -0.1049261326E-04      33   31    2        -0.6458487154E-03      0.7144203314E-02
          0                 9           1            37   31     2      -0.8654014014E-05      37   31    2        -0.6539968820E-03      0.6412356815E-02

    ------------------------------------------------
       NWT REQUIRED            9 OUTER ITERATIONS 
       AND A TOTAL OF          9 INNER ITERATIONS.
    ------------------------------------------------

 OUTPUT CONTROL FOR STRESS PERIOD    2   TIME STEP   74
    SAVE HEAD FOR ALL LAYERS
 SOLVING FOR ZETA FOR LAYER     1 ZONE     2

     698 UPPER PART EQS.       691 LOWER PART EQS.    BAND WIDTH + 1 =   36
 STRESS PERIOD=  2 TIMESTEP= 74 LAYER=  1 ZONE=  2 ACTIVE CELLS= 1389 NUMBER OF EQUATIONS=    1389
 SOLVING FOR ZETA FOR LAYER     2 ZONE     2

     629 UPPER PART EQS.       642 LOWER PART EQS.    BAND WIDTH + 1 =   35
 STRESS PERIOD=  2 TIMESTEP= 74 LAYER=  2 ZONE=  2 ACTIVE CELLS= 1271 NUMBER OF EQUATIONS=    1271
 UBUDSV SAVING "      ZETASRF  1" ON UNIT 55 AT TIME STEP 74, STRESS PERIOD    2

 HEAD WILL BE SAVED ON UNIT   51 AT END OF TIME STEP   74, STRESS PERIOD    2
 
 SOLVING FOR HEAD 
                                                   Max.-Head-Change                         Max.-Flux-Residual
  Residual-Control   Outer-Iter.   Inner-Iter.     Column Row Layer    Maximum-Head-Change  Column Row Layer    Maximum-Flux-Residual          L2-NORM 
          0                 1           1            36   31     2      -0.6763008634E-03      37   56    1         0.3122914368E+00      0.1018706648E+01
          0                 2           1            38   30     2      -0.6493888609E-04      39   29    2        -0.9200565973E-02      0.4307558029E-01
          0                 3           1            37   31     2      -0.4012351365E-04      37   31    2        -0.3043957560E-02      0.1901302439E-01
          0                 4           1            39   29     2      -0.2175739456E-04      39   29    2        -0.1857977957E-02      0.1292344197E-01
          0                 5           1            37   31     2      -0.1800885995E-04      37   31    2        -0.1253613081E-02      0.1055148310E-01
          0                 6           1            34   32     2      -0.1444813155E-04      39   29    2        -0.9113824507E-03      0.9157883532E-02
          0                 7           1            37   31     2      -0.1115613350E-04      37   31    2        -0.8499053764E-03      0.8157386347E-02
          0                 8           1            34   32     2      -0.1084542993E-04      33   31    2        -0.6284920647E-03      0.7274277154E-02
          0                 9           1            37   31     2      -0.8231370500E-05      37   31    2        -0.6525165882E-03      0.6607026838E-02

    ------------------------------------------------
       NWT REQUIRED            9 OUTER ITERATIONS 
       AND A TOTAL OF          9 INNER ITERATIONS.
    ------------------------------------------------

 OUTPUT CONTROL FOR STRESS PERIOD    2   TIME STEP   75
    SAVE HEAD FOR ALL LAYERS
 SOLVING FOR ZETA FOR LAYER     1 ZONE     2

     691 UPPER PART EQS.       703 LOWER PART EQS.    BAND WIDTH + 1 =   33
 STRESS PERIOD=  2 TIMESTEP= 75 LAYER=  1 ZONE=  2 ACTIVE CELLS= 1394 NUMBER OF EQUATIONS=    1394
 SOLVING FOR ZETA FOR LAYER     2 ZONE     2

     629 UPPER PART EQS.       642 LOWER PART EQS.    BAND WIDTH + 1 =   35
 STRESS PERIOD=  2 TIMESTEP= 75 LAYER=  2 ZONE=  2 ACTIVE CELLS= 1271 NUMBER OF EQUATIONS=    1271
 UBUDSV SAVING "      ZETASRF  1" ON UNIT 55 AT TIME STEP 75, STRESS PERIOD    2

 HEAD WILL BE SAVED ON UNIT   51 AT END OF TIME STEP   75, STRESS PERIOD    2
 
 SOLVING FOR HEAD 
                                                   Max.-Head-Change                         Max.-Flux-Residual
  Residual-Control   Outer-Iter.   Inner-Iter.     Column Row Layer    Maximum-Head-Change  Column Row Layer    Maximum-Flux-Residual          L2-NORM 
          0                 1           1            36   31     2      -0.6776633297E-03      36   31    2        -0.2863588333E+00      0.7667947542E+00
          0                 2           1            38   30     2      -0.6403047469E-04      39   29    2        -0.9162187665E-02      0.4161611887E-01
          0                 3           1            37   31     2      -0.4285740065E-04      37   31    2        -0.3065346930E-02      0.1865668227E-01
          0                 4           1            39   29     2      -0.2113706604E-04      39   29    2        -0.1865151100E-02      0.1258109178E-01
          0                 5           1            37   31     2      -0.1818013579E-04      37   31    2        -0.1253803446E-02      0.9867875946E-02
          0                 6           1            39   29     2      -0.1307067037E-04      39   29    2        -0.9161054073E-03      0.8246982197E-02
          0                 7           1            37   31     2      -0.1052892347E-04      37   31    2        -0.8218530454E-03      0.7082693844E-02
          0                 8           1            34   32     2      -0.9722306156E-05      33   31    2        -0.5621086249E-03      0.6166332847E-02

    ------------------------------------------------
       NWT REQUIRED            8 OUTER ITERATIONS 
       AND A TOTAL OF          8 INNER ITERATIONS.
    ------------------------------------------------

 OUTPUT CONTROL FOR STRESS PERIOD    2   TIME STEP   76
    SAVE HEAD FOR ALL LAYERS
 SOLVING FOR ZETA FOR LAYER     1 ZONE     2

     695 UPPER PART EQS.       707 LOWER PART EQS.    BAND WIDTH + 1 =   32
 STRESS PERIOD=  2 TIMESTEP= 76 LAYER=  1 ZONE=  2 ACTIVE CELLS= 1402 NUMBER OF EQUATIONS=    1402
 SOLVING FOR ZETA FOR LAYER     2 ZONE     2

     629 UPPER PART EQS.       642 LOWER PART EQS.    BAND WIDTH + 1 =   35
 STRESS PERIOD=  2 TIMESTEP= 76 LAYER=  2 ZONE=  2 ACTIVE CELLS= 1271 NUMBER OF EQUATIONS=    1271
 UBUDSV SAVING "      ZETASRF  1" ON UNIT 55 AT TIME STEP 76, STRESS PERIOD    2

 HEAD WILL BE SAVED ON UNIT   51 AT END OF TIME STEP   76, STRESS PERIOD    2
 
 SOLVING FOR HEAD 
                                                   Max.-Head-Change                         Max.-Flux-Residual
  Residual-Control   Outer-Iter.   Inner-Iter.     Column Row Layer    Maximum-Head-Change  Column Row Layer    Maximum-Flux-Residual          L2-NORM 
          0                 1           1            36   31     2      -0.6791440302E-03      36   31    2        -0.2889680862E+00      0.7110662629E+00
          0                 2           1            38   30     2      -0.6451614266E-04      39   29    2        -0.9129148965E-02      0.4071820162E-01
          0                 3           1            37   31     2      -0.4287951859E-04      37   31    2        -0.2996420341E-02      0.1913867784E-01
          0                 4           1            39   29     2      -0.2243137968E-04      39   29    2        -0.1930510808E-02      0.1339654727E-01
          0                 5           1            37   31     2      -0.1909567318E-04      37   31    2        -0.1301504279E-02      0.1071186153E-01
          0                 6           1            39   29     2      -0.1404783590E-04      39   29    2        -0.9836137060E-03      0.9025710558E-02
          0                 7           1            37   31     2      -0.1149114638E-04      37   31    2        -0.8745377510E-03      0.7791990050E-02
          0                 8           1            34   32     2      -0.1031256643E-04      39   29    2        -0.6171454852E-03      0.6798096486E-02
          0                 9           1            37   31     2      -0.8023266888E-05      37   31    2        -0.6519856448E-03      0.6050417933E-02

    ------------------------------------------------
       NWT REQUIRED            9 OUTER ITERATIONS 
       AND A TOTAL OF          9 INNER ITERATIONS.
    ------------------------------------------------

 OUTPUT CONTROL FOR STRESS PERIOD    2   TIME STEP   77
    SAVE HEAD FOR ALL LAYERS
 SOLVING FOR ZETA FOR LAYER     1 ZONE     2

     693 UPPER PART EQS.       711 LOWER PART EQS.    BAND WIDTH + 1 =   38
 STRESS PERIOD=  2 TIMESTEP= 77 LAYER=  1 ZONE=  2 ACTIVE CELLS= 1404 NUMBER OF EQUATIONS=    1404
 SOLVING FOR ZETA FOR LAYER     2 ZONE     2

     629 UPPER PART EQS.       642 LOWER PART EQS.    BAND WIDTH + 1 =   35
 STRESS PERIOD=  2 TIMESTEP= 77 LAYER=  2 ZONE=  2 ACTIVE CELLS= 1271 NUMBER OF EQUATIONS=    1271
 UBUDSV SAVING "      ZETASRF  1" ON UNIT 55 AT TIME STEP 77, STRESS PERIOD    2

 HEAD WILL BE SAVED ON UNIT   51 AT END OF TIME STEP   77, STRESS PERIOD    2
 
 SOLVING FOR HEAD 
                                                   Max.-Head-Change                         Max.-Flux-Residual
  Residual-Control   Outer-Iter.   Inner-Iter.     Column Row Layer    Maximum-Head-Change  Column Row Layer    Maximum-Flux-Residual          L2-NORM 
          0                 1           1            36   31     2      -0.6801825912E-03      28   56    1         0.3136095574E+00      0.9310618113E+00
          0                 2           1            38   30     2      -0.6421385187E-04      39   29    2        -0.9077011226E-02      0.3981785683E-01
          0                 3           1            37   31     2      -0.4080047224E-04      37   31    2        -0.2991661655E-02      0.1814856895E-01
          0                 4           1            39   29     2      -0.2139395750E-04      39   29    2        -0.1855286648E-02      0.1239112521E-01
          0                 5           1            37   31     2      -0.1800252356E-04      37   31    2        -0.1238805695E-02      0.9926186972E-02
          0                 6           1            34   32     2      -0.1325280688E-04      39   29    2        -0.9220704633E-03      0.8441257360E-02
          0                 7           1            37   31     2      -0.1111547401E-04      37   31    2        -0.8146027619E-03      0.7391794156E-02
          0                 8           1            34   32     2      -0.9640750279E-05      33   31    2        -0.6021838758E-03      0.6546023260E-02

    ------------------------------------------------
       NWT REQUIRED            8 OUTER ITERATIONS 
       AND A TOTAL OF          8 INNER ITERATIONS.
    ------------------------------------------------

 OUTPUT CONTROL FOR STRESS PERIOD    2   TIME STEP   78
    SAVE HEAD FOR ALL LAYERS
 SOLVING FOR ZETA FOR LAYER     1 ZONE     2

     697 UPPER PART EQS.       697 LOWER PART EQS.    BAND WIDTH + 1 =   31
 STRESS PERIOD=  2 TIMESTEP= 78 LAYER=  1 ZONE=  2 ACTIVE CELLS= 1394 NUMBER OF EQUATIONS=    1394
 SOLVING FOR ZETA FOR LAYER     2 ZONE     2

     629 UPPER PART EQS.       642 LOWER PART EQS.    BAND WIDTH + 1 =   35
 STRESS PERIOD=  2 TIMESTEP= 78 LAYER=  2 ZONE=  2 ACTIVE CELLS= 1271 NUMBER OF EQUATIONS=    1271
 UBUDSV SAVING "      ZETASRF  1" ON UNIT 55 AT TIME STEP 78, STRESS PERIOD    2

 HEAD WILL BE SAVED ON UNIT   51 AT END OF TIME STEP   78, STRESS PERIOD    2
 
 SOLVING FOR HEAD 
                                                   Max.-Head-Change                         Max.-Flux-Residual
  Residual-Control   Outer-Iter.   Inner-Iter.     Column Row Layer    Maximum-Head-Change  Column Row Layer    Maximum-Flux-Residual          L2-NORM 
          0                 1           1            36   31     2      -0.6835213206E-03      36   31    2        -0.2944450378E+00      0.7274663598E+00
          0                 2           1            38   30     2      -0.6450162527E-04      39   29    2        -0.9071619992E-02      0.4138372586E-01
          0                 3           1            37   31     2      -0.3986627247E-04      37   31    2        -0.3019589907E-02      0.1894807129E-01
          0                 4           1            39   29     2      -0.2260770544E-04      39   29    2        -0.1900987358E-02      0.1321214480E-01
          0                 5           1            37   31     2      -0.1826501473E-04      37   31    2        -0.1300356078E-02      0.1081797601E-01
          0                 6           1            34   32     2      -0.1489203725E-04      39   29    2        -0.9457203710E-03      0.9369218435E-02
          0                 7           1            37   31     2      -0.1141719860E-04      37   31    2        -0.8832903407E-03      0.8318269623E-02
          0                 8           1            34   32     2      -0.1114074553E-04      33   31    2        -0.6404825006E-03      0.7397992506E-02
          0                 9           1            37   31     2      -0.8391299594E-05      37   31    2        -0.6706445245E-03      0.6705252129E-02

    ------------------------------------------------
       NWT REQUIRED            9 OUTER ITERATIONS 
       AND A TOTAL OF          9 INNER ITERATIONS.
    ------------------------------------------------

 OUTPUT CONTROL FOR STRESS PERIOD    2   TIME STEP   79
    SAVE HEAD FOR ALL LAYERS
 SOLVING FOR ZETA FOR LAYER     1 ZONE     2

     692 UPPER PART EQS.       703 LOWER PART EQS.    BAND WIDTH + 1 =   32
 STRESS PERIOD=  2 TIMESTEP= 79 LAYER=  1 ZONE=  2 ACTIVE CELLS= 1395 NUMBER OF EQUATIONS=    1395
 SOLVING FOR ZETA FOR LAYER     2 ZONE     2

     629 UPPER PART EQS.       642 LOWER PART EQS.    BAND WIDTH + 1 =   35
 STRESS PERIOD=  2 TIMESTEP= 79 LAYER=  2 ZONE=  2 ACTIVE CELLS= 1271 NUMBER OF EQUATIONS=    1271
 UBUDSV SAVING "      ZETASRF  1" ON UNIT 55 AT TIME STEP 79, STRESS PERIOD    2

 HEAD WILL BE SAVED ON UNIT   51 AT END OF TIME STEP   79, STRESS PERIOD    2
 
 SOLVING FOR HEAD 
                                                   Max.-Head-Change                         Max.-Flux-Residual
  Residual-Control   Outer-Iter.   Inner-Iter.     Column Row Layer    Maximum-Head-Change  Column Row Layer    Maximum-Flux-Residual          L2-NORM 
          0                 1           1            36   31     2      -0.6844152859E-03      36   31    2        -0.2971954346E+00      0.7880693432E+00
          0                 2           1            38   30     2      -0.6246799124E-04      39   29    2        -0.9004942190E-02      0.4088121577E-01
          0                 3           1            37   31     2      -0.4240716505E-04      37   31    2        -0.3023013934E-02      0.1836792285E-01
          0                 4           1            39   29     2      -0.2072795421E-04      39   29    2        -0.1820542585E-02      0.1242212745E-01
          0                 5           1            37   31     2      -0.1811241616E-04      37   31    2        -0.1230789122E-02      0.9831016463E-02
          0                 6           1            34   32     2      -0.1325792140E-04      39   29    2        -0.9004214875E-03      0.8282495379E-02
          0                 7           1            37   31     2      -0.1046043694E-04      37   31    2        -0.8211529257E-03      0.7179233155E-02
          0                 8           1            34   32     2      -0.1005539046E-04      33   31    2        -0.5667118933E-03      0.6286221221E-02
          0                 9           1            37   31     2      -0.7157306706E-05      37   31    2        -0.6231669839E-03      0.5663955871E-02

    ------------------------------------------------
       NWT REQUIRED            9 OUTER ITERATIONS 
       AND A TOTAL OF          9 INNER ITERATIONS.
    ------------------------------------------------

 OUTPUT CONTROL FOR STRESS PERIOD    2   TIME STEP   80
    SAVE HEAD FOR ALL LAYERS
 SOLVING FOR ZETA FOR LAYER     1 ZONE     2

     699 UPPER PART EQS.       703 LOWER PART EQS.    BAND WIDTH + 1 =   27
 STRESS PERIOD=  2 TIMESTEP= 80 LAYER=  1 ZONE=  2 ACTIVE CELLS= 1402 NUMBER OF EQUATIONS=    1402
 SOLVING FOR ZETA FOR LAYER     2 ZONE     2

     629 UPPER PART EQS.       642 LOWER PART EQS.    BAND WIDTH + 1 =   35
 STRESS PERIOD=  2 TIMESTEP= 80 LAYER=  2 ZONE=  2 ACTIVE CELLS= 1271 NUMBER OF EQUATIONS=    1271
 UBUDSV SAVING "      ZETASRF  1" ON UNIT 55 AT TIME STEP 80, STRESS PERIOD    2

 HEAD WILL BE SAVED ON UNIT   51 AT END OF TIME STEP   80, STRESS PERIOD    2
 
 SOLVING FOR HEAD 
                                                   Max.-Head-Change                         Max.-Flux-Residual
  Residual-Control   Outer-Iter.   Inner-Iter.     Column Row Layer    Maximum-Head-Change  Column Row Layer    Maximum-Flux-Residual          L2-NORM 
          0                 1           1            36   31     2      -0.6853746610E-03      36   31    2        -0.3001475334E+00      0.8138117763E+00
          0                 2           1            38   30     2      -0.6034412973E-04      39   29    2        -0.8910182664E-02      0.4391575215E-01
          0                 3           1            37   31     2      -0.4210283068E-04      37   31    2        -0.2946435620E-02      0.1886123374E-01
          0                 4           1            39   29     2      -0.2149607531E-04      39   29    2        -0.1735973013E-02      0.1305339332E-01
          0                 5           1            37   31     2      -0.1841277053E-04      37   31    2        -0.1227714938E-02      0.1045590207E-01
          0                 6           1            39   29     2      -0.1343368750E-04      39   29    2        -0.9178440876E-03      0.8786092556E-02
          0                 7           1            37   31     2      -0.1126298657E-04      37   31    2        -0.8169175666E-03      0.7576295324E-02
          0                 8           1            34   32     2      -0.9667869900E-05      39   29    2        -0.5826894886E-03      0.6596465675E-02

    ------------------------------------------------
       NWT REQUIRED            8 OUTER ITERATIONS 
       AND A TOTAL OF          8 INNER ITERATIONS.
    ------------------------------------------------

 OUTPUT CONTROL FOR STRESS PERIOD    2   TIME STEP   81
    SAVE HEAD FOR ALL LAYERS
 SOLVING FOR ZETA FOR LAYER     1 ZONE     2

     699 UPPER PART EQS.       707 LOWER PART EQS.    BAND WIDTH + 1 =   29
 STRESS PERIOD=  2 TIMESTEP= 81 LAYER=  1 ZONE=  2 ACTIVE CELLS= 1406 NUMBER OF EQUATIONS=    1406
 SOLVING FOR ZETA FOR LAYER     2 ZONE     2

     629 UPPER PART EQS.       642 LOWER PART EQS.    BAND WIDTH + 1 =   35
 STRESS PERIOD=  2 TIMESTEP= 81 LAYER=  2 ZONE=  2 ACTIVE CELLS= 1271 NUMBER OF EQUATIONS=    1271
 UBUDSV SAVING "      ZETASRF  1" ON UNIT 55 AT TIME STEP 81, STRESS PERIOD    2

 HEAD WILL BE SAVED ON UNIT   51 AT END OF TIME STEP   81, STRESS PERIOD    2
 
 SOLVING FOR HEAD 
                                                   Max.-Head-Change                         Max.-Flux-Residual
  Residual-Control   Outer-Iter.   Inner-Iter.     Column Row Layer    Maximum-Head-Change  Column Row Layer    Maximum-Flux-Residual          L2-NORM 
          0                 1           1            36   31     2      -0.6897391906E-03      38    6    1         0.3132630859E+00      0.9954394978E+00
          0                 2           1            38   30     2      -0.6273072379E-04      39   29    2        -0.9004178491E-02      0.4114072352E-01
          0                 3           1            37   31     2      -0.4378656374E-04      37   31    2        -0.3071234976E-02      0.1904260591E-01
          0                 4           1            39   29     2      -0.2092829542E-04      39   29    2        -0.1887506225E-02      0.1273416660E-01
          0                 5           1            37   31     2      -0.1936532512E-04      37   31    2        -0.1244189178E-02      0.1008693811E-01
          0                 6           1            34   32     2      -0.1312568588E-04      39   29    2        -0.9357333557E-03      0.8537853004E-02
          0                 7           1            37   31     2      -0.1121343393E-04      37   31    2        -0.8134950279E-03      0.7460371110E-02
          0                 8           1            34   32     2      -0.9980789150E-05      33   31    2        -0.5992539641E-03      0.6624774543E-02

    ------------------------------------------------
       NWT REQUIRED            8 OUTER ITERATIONS 
       AND A TOTAL OF          8 INNER ITERATIONS.
    ------------------------------------------------

 OUTPUT CONTROL FOR STRESS PERIOD    2   TIME STEP   82
    SAVE HEAD FOR ALL LAYERS
 SOLVING FOR ZETA FOR LAYER     1 ZONE     2

     699 UPPER PART EQS.       697 LOWER PART EQS.    BAND WIDTH + 1 =   32
 STRESS PERIOD=  2 TIMESTEP= 82 LAYER=  1 ZONE=  2 ACTIVE CELLS= 1396 NUMBER OF EQUATIONS=    1396
 SOLVING FOR ZETA FOR LAYER     2 ZONE     2

     629 UPPER PART EQS.       642 LOWER PART EQS.    BAND WIDTH + 1 =   35
 STRESS PERIOD=  2 TIMESTEP= 82 LAYER=  2 ZONE=  2 ACTIVE CELLS= 1271 NUMBER OF EQUATIONS=    1271
 UBUDSV SAVING "      ZETASRF  1" ON UNIT 55 AT TIME STEP 82, STRESS PERIOD    2

 HEAD WILL BE SAVED ON UNIT   51 AT END OF TIME STEP   82, STRESS PERIOD    2
 
 SOLVING FOR HEAD 
                                                   Max.-Head-Change                         Max.-Flux-Residual
  Residual-Control   Outer-Iter.   Inner-Iter.     Column Row Layer    Maximum-Head-Change  Column Row Layer    Maximum-Flux-Residual          L2-NORM 
          0                 1           1            36   31     2      -0.6917533345E-03      27   56    1         0.3172597479E+00      0.1055546318E+01
          0                 2           1            38   30     2      -0.6168233605E-04      39   29    2        -0.8934806298E-02      0.4283259946E-01
          0                 3           1            37   31     2      -0.4365441339E-04      37   31    2        -0.3030291497E-02      0.1962471167E-01
          0                 4           1            39   29     2      -0.2170938019E-04      39   29    2        -0.1859517631E-02      0.1359466386E-01
          0                 5           1            37   31     2      -0.2022724052E-04      37   31    2        -0.1265116278E-02      0.1112394063E-01
          0                 6           1            34   32     2      -0.1382130484E-04      39   29    2        -0.9625399903E-03      0.9645415720E-02
          0                 7           1            37   31     2      -0.1264721134E-04      37   31    2        -0.8377177038E-03      0.8492031979E-02
          0                 8           1            34   32     2      -0.1032108974E-04      33   31    2        -0.6560494535E-03      0.7609159683E-02
          0                 9           1            37   31     2      -0.9117720064E-05      37   31    2        -0.6309971455E-03      0.6821137029E-02

    ------------------------------------------------
       NWT REQUIRED            9 OUTER ITERATIONS 
       AND A TOTAL OF          9 INNER ITERATIONS.
    ------------------------------------------------

 OUTPUT CONTROL FOR STRESS PERIOD    2   TIME STEP   83
    SAVE HEAD FOR ALL LAYERS
 SOLVING FOR ZETA FOR LAYER     1 ZONE     2

     690 UPPER PART EQS.       709 LOWER PART EQS.    BAND WIDTH + 1 =   40
 STRESS PERIOD=  2 TIMESTEP= 83 LAYER=  1 ZONE=  2 ACTIVE CELLS= 1399 NUMBER OF EQUATIONS=    1399
 SOLVING FOR ZETA FOR LAYER     2 ZONE     2

     629 UPPER PART EQS.       642 LOWER PART EQS.    BAND WIDTH + 1 =   35
 STRESS PERIOD=  2 TIMESTEP= 83 LAYER=  2 ZONE=  2 ACTIVE CELLS= 1271 NUMBER OF EQUATIONS=    1271
 UBUDSV SAVING "      ZETASRF  1" ON UNIT 55 AT TIME STEP 83, STRESS PERIOD    2

 HEAD WILL BE SAVED ON UNIT   51 AT END OF TIME STEP   83, STRESS PERIOD    2
 
 SOLVING FOR HEAD 
                                                   Max.-Head-Change                         Max.-Flux-Residual
  Residual-Control   Outer-Iter.   Inner-Iter.     Column Row Layer    Maximum-Head-Change  Column Row Layer    Maximum-Flux-Residual          L2-NORM 
          0                 1           1            36   31     2      -0.6928132443E-03      56   21    1         0.3138871095E+00      0.1088564399E+01
          0                 2           1            38   30     2      -0.5936681627E-04      39   29    2        -0.8827480073E-02      0.4078860014E-01
          0                 3           1            37   31     2      -0.4271807043E-04      37   31    2        -0.2934983336E-02      0.1749785077E-01
          0                 4           1            39   29     2      -0.1853052209E-04      39   29    2        -0.1633584378E-02      0.1155537970E-01
          0                 5           1            37   31     2      -0.1720250848E-04      37   31    2        -0.1115050337E-02      0.9096876728E-02
          0                 6           1            34   32     2      -0.1190989679E-04      39   29    2        -0.8119316695E-03      0.7666243134E-02
          0                 7           1            37   31     2      -0.9849748774E-05      37   31    2        -0.7289740915E-03      0.6657631573E-02

    ------------------------------------------------
       NWT REQUIRED            7 OUTER ITERATIONS 
       AND A TOTAL OF          7 INNER ITERATIONS.
    ------------------------------------------------

 OUTPUT CONTROL FOR STRESS PERIOD    2   TIME STEP   84
    SAVE HEAD FOR ALL LAYERS
 SOLVING FOR ZETA FOR LAYER     1 ZONE     2

     699 UPPER PART EQS.       711 LOWER PART EQS.    BAND WIDTH + 1 =   32
 STRESS PERIOD=  2 TIMESTEP= 84 LAYER=  1 ZONE=  2 ACTIVE CELLS= 1410 NUMBER OF EQUATIONS=    1410
 SOLVING FOR ZETA FOR LAYER     2 ZONE     2

     629 UPPER PART EQS.       642 LOWER PART EQS.    BAND WIDTH + 1 =   35
 STRESS PERIOD=  2 TIMESTEP= 84 LAYER=  2 ZONE=  2 ACTIVE CELLS= 1271 NUMBER OF EQUATIONS=    1271
 UBUDSV SAVING "      ZETASRF  1" ON UNIT 55 AT TIME STEP 84, STRESS PERIOD    2

 HEAD WILL BE SAVED ON UNIT   51 AT END OF TIME STEP   84, STRESS PERIOD    2
 
 SOLVING FOR HEAD 
                                                   Max.-Head-Change                         Max.-Flux-Residual
  Residual-Control   Outer-Iter.   Inner-Iter.     Column Row Layer    Maximum-Head-Change  Column Row Layer    Maximum-Flux-Residual          L2-NORM 
          0                 1           1            36   31     2      -0.6962383714E-03      36   31    2        -0.3128614426E+00      0.7587693777E+00
          0                 2           1            38   30     2      -0.6122559636E-04      39   29    2        -0.8832557912E-02      0.4091386889E-01
          0                 3           1            37   31     2      -0.4200670288E-04      37   31    2        -0.2942876971E-02      0.1871763756E-01
          0                 4           1            39   29     2      -0.2182899073E-04      39   29    2        -0.1842418672E-02      0.1322691209E-01
          0                 5           1            37   31     2      -0.1917255816E-04      37   31    2        -0.1276162465E-02      0.1066543276E-01
          0                 6           1            39   29     2      -0.1329092797E-04      39   29    2        -0.9716010146E-03      0.8992662919E-02
          0                 7           1            37   31     2      -0.1207788663E-04      37   31    2        -0.8414086176E-03      0.7760834833E-02
          0                 8           1            34   32     2      -0.9435728184E-05      39   29    2        -0.6194698571E-03      0.6787972129E-02

    ------------------------------------------------
       NWT REQUIRED            8 OUTER ITERATIONS 
       AND A TOTAL OF          8 INNER ITERATIONS.
    ------------------------------------------------

 OUTPUT CONTROL FOR STRESS PERIOD    2   TIME STEP   85
    SAVE HEAD FOR ALL LAYERS
 SOLVING FOR ZETA FOR LAYER     1 ZONE     2

     703 UPPER PART EQS.       709 LOWER PART EQS.    BAND WIDTH + 1 =   27
 STRESS PERIOD=  2 TIMESTEP= 85 LAYER=  1 ZONE=  2 ACTIVE CELLS= 1412 NUMBER OF EQUATIONS=    1412
 SOLVING FOR ZETA FOR LAYER     2 ZONE     2

     629 UPPER PART EQS.       642 LOWER PART EQS.    BAND WIDTH + 1 =   35
 STRESS PERIOD=  2 TIMESTEP= 85 LAYER=  2 ZONE=  2 ACTIVE CELLS= 1271 NUMBER OF EQUATIONS=    1271
 UBUDSV SAVING "      ZETASRF  1" ON UNIT 55 AT TIME STEP 85, STRESS PERIOD    2

 HEAD WILL BE SAVED ON UNIT   51 AT END OF TIME STEP   85, STRESS PERIOD    2
 
 SOLVING FOR HEAD 
                                                   Max.-Head-Change                         Max.-Flux-Residual
  Residual-Control   Outer-Iter.   Inner-Iter.     Column Row Layer    Maximum-Head-Change  Column Row Layer    Maximum-Flux-Residual          L2-NORM 
          0                 1           1            36   31     2      -0.6997997618E-03      36   31    2        -0.3163719177E+00      0.6806566045E+00
          0                 2           1            38   30     2      -0.6419619016E-04      39   29    2        -0.8865832057E-02      0.3884409647E-01
          0                 3           1            37   31     2      -0.4170508730E-04      37   31    2        -0.2972035191E-02      0.1876327693E-01
          0                 4           1            39   29     2      -0.2228990498E-04      39   29    2        -0.1981689180E-02      0.1294306589E-01
          0                 5           1            37   31     2      -0.1911929047E-04      37   31    2        -0.1303690006E-02      0.1036053106E-01
          0                 6           1            34   32     2      -0.1402057895E-04      39   29    2        -0.9932447077E-03      0.8765800146E-02
          0                 7           1            37   31     2      -0.1154417048E-04      37   31    2        -0.8691202804E-03      0.7664483339E-02
          0                 8           1            34   32     2      -0.1032911068E-04      33   31    2        -0.6316305287E-03      0.6770898214E-02
          0                 9           1            37   31     2      -0.8131766048E-05      37   31    2        -0.6491496152E-03      0.6099902984E-02

    ------------------------------------------------
       NWT REQUIRED            9 OUTER ITERATIONS 
       AND A TOTAL OF          9 INNER ITERATIONS.
    ------------------------------------------------

 OUTPUT CONTROL FOR STRESS PERIOD    2   TIME STEP   86
    SAVE HEAD FOR ALL LAYERS
 SOLVING FOR ZETA FOR LAYER     1 ZONE     2

     701 UPPER PART EQS.       703 LOWER PART EQS.    BAND WIDTH + 1 =   31
 STRESS PERIOD=  2 TIMESTEP= 86 LAYER=  1 ZONE=  2 ACTIVE CELLS= 1404 NUMBER OF EQUATIONS=    1404
 SOLVING FOR ZETA FOR LAYER     2 ZONE     2

     629 UPPER PART EQS.       642 LOWER PART EQS.    BAND WIDTH + 1 =   35
 STRESS PERIOD=  2 TIMESTEP= 86 LAYER=  2 ZONE=  2 ACTIVE CELLS= 1271 NUMBER OF EQUATIONS=    1271
 UBUDSV SAVING "      ZETASRF  1" ON UNIT 55 AT TIME STEP 86, STRESS PERIOD    2

 HEAD WILL BE SAVED ON UNIT   51 AT END OF TIME STEP   86, STRESS PERIOD    2
 
 SOLVING FOR HEAD 
                                                   Max.-Head-Change                         Max.-Flux-Residual
  Residual-Control   Outer-Iter.   Inner-Iter.     Column Row Layer    Maximum-Head-Change  Column Row Layer    Maximum-Flux-Residual          L2-NORM 
          0                 1           1            36   31     2      -0.7015905230E-03      36   31    2        -0.3198151588E+00      0.1048428890E+01
          0                 2           1            38   30     2      -0.6025358252E-04      39   29    2        -0.8743236975E-02      0.4175941908E-01
          0                 3           1            37   31     2      -0.4067698822E-04      37   31    2        -0.2934821659E-02      0.1881482119E-01
          0                 4           1            39   29     2      -0.2141329577E-04      39   29    2        -0.1797740609E-02      0.1309775769E-01
          0                 5           1            37   31     2      -0.1850973205E-04      37   31    2        -0.1233603531E-02      0.1072285818E-01
          0                 6           1            34   32     2      -0.1404479680E-04      39   29    2        -0.9112029816E-03      0.9270439180E-02
          0                 7           1            37   31     2      -0.1148631237E-04      37   31    2        -0.8267807821E-03      0.8205085903E-02
          0                 8           1            34   32     2      -0.1051270612E-04      33   31    2        -0.6170398620E-03      0.7292013439E-02
          0                 9           1            37   31     2      -0.8371078199E-05      37   31    2        -0.6234675213E-03      0.6588245986E-02

    ------------------------------------------------
       NWT REQUIRED            9 OUTER ITERATIONS 
       AND A TOTAL OF          9 INNER ITERATIONS.
    ------------------------------------------------

 OUTPUT CONTROL FOR STRESS PERIOD    2   TIME STEP   87
    SAVE HEAD FOR ALL LAYERS
 SOLVING FOR ZETA FOR LAYER     1 ZONE     2

     690 UPPER PART EQS.       713 LOWER PART EQS.    BAND WIDTH + 1 =   42
 STRESS PERIOD=  2 TIMESTEP= 87 LAYER=  1 ZONE=  2 ACTIVE CELLS= 1403 NUMBER OF EQUATIONS=    1403
 SOLVING FOR ZETA FOR LAYER     2 ZONE     2

     629 UPPER PART EQS.       642 LOWER PART EQS.    BAND WIDTH + 1 =   35
 STRESS PERIOD=  2 TIMESTEP= 87 LAYER=  2 ZONE=  2 ACTIVE CELLS= 1271 NUMBER OF EQUATIONS=    1271
 UBUDSV SAVING "      ZETASRF  1" ON UNIT 55 AT TIME STEP 87, STRESS PERIOD    2

 HEAD WILL BE SAVED ON UNIT   51 AT END OF TIME STEP   87, STRESS PERIOD    2
 
 SOLVING FOR HEAD 
                                                   Max.-Head-Change                         Max.-Flux-Residual
  Residual-Control   Outer-Iter.   Inner-Iter.     Column Row Layer    Maximum-Head-Change  Column Row Layer    Maximum-Flux-Residual          L2-NORM 
          0                 1           1            36   31     2      -0.7046143081E-03      36   31    2        -0.3234796524E+00      0.8387875378E+00
          0                 2           1            38   30     2      -0.5939884191E-04      39   29    2        -0.8704255372E-02      0.3960803081E-01
          0                 3           1            37   31     2      -0.4179750093E-04      37   31    2        -0.2903159768E-02      0.1753028534E-01
          0                 4           1            39   29     2      -0.1885234882E-04      39   29    2        -0.1709376188E-02      0.1149757049E-01
          0                 5           1            37   31     2      -0.1740710402E-04      37   31    2        -0.1139628416E-02      0.8926602074E-02
          0                 6           1            34   32     2      -0.1144086076E-04      39   29    2        -0.8395356379E-03      0.7426227589E-02
          0                 7           1            37   31     2      -0.1017257107E-04      37   31    2        -0.7238707952E-03      0.6360648184E-02
          0                 8           1            34   32     2      -0.8268337903E-05      33   31    2        -0.5308101642E-03      0.5588945553E-02

    ------------------------------------------------
       NWT REQUIRED            8 OUTER ITERATIONS 
       AND A TOTAL OF          8 INNER ITERATIONS.
    ------------------------------------------------

 OUTPUT CONTROL FOR STRESS PERIOD    2   TIME STEP   88
    SAVE HEAD FOR ALL LAYERS
 SOLVING FOR ZETA FOR LAYER     1 ZONE     2

     699 UPPER PART EQS.       713 LOWER PART EQS.    BAND WIDTH + 1 =   33
 STRESS PERIOD=  2 TIMESTEP= 88 LAYER=  1 ZONE=  2 ACTIVE CELLS= 1412 NUMBER OF EQUATIONS=    1412
 SOLVING FOR ZETA FOR LAYER     2 ZONE     2

     629 UPPER PART EQS.       642 LOWER PART EQS.    BAND WIDTH + 1 =   35
 STRESS PERIOD=  2 TIMESTEP= 88 LAYER=  2 ZONE=  2 ACTIVE CELLS= 1271 NUMBER OF EQUATIONS=    1271
 UBUDSV SAVING "      ZETASRF  1" ON UNIT 55 AT TIME STEP 88, STRESS PERIOD    2

 HEAD WILL BE SAVED ON UNIT   51 AT END OF TIME STEP   88, STRESS PERIOD    2
 
 SOLVING FOR HEAD 
                                                   Max.-Head-Change                         Max.-Flux-Residual
  Residual-Control   Outer-Iter.   Inner-Iter.     Column Row Layer    Maximum-Head-Change  Column Row Layer    Maximum-Flux-Residual          L2-NORM 
          0                 1           1            36   31     2      -0.7078710436E-03      36   31    2        -0.3272318840E+00      0.6102831497E+00
          0                 2           1            34   32     2      -0.6009418392E-04      39   29    2        -0.8640915176E-02      0.3643794145E-01
          0                 3           1            37   31     2      -0.3827377390E-04      37   31    2        -0.2779235951E-02      0.1668102155E-01
          0                 4           1            39   29     2      -0.1935661926E-04      39   29    2        -0.1760509847E-02      0.1123009443E-01
          0                 5           1            37   31     2      -0.1640650950E-04      37   31    2        -0.1158580673E-02      0.8751977057E-02
          0                 6           1            34   32     2      -0.1173634978E-04      39   29    2        -0.8539589707E-03      0.7264824785E-02
          0                 7           1            37   31     2      -0.9648692196E-05      37   31    2        -0.7526477143E-03      0.6226859694E-02

    ------------------------------------------------
       NWT REQUIRED            7 OUTER ITERATIONS 
       AND A TOTAL OF          7 INNER ITERATIONS.
    ------------------------------------------------

 OUTPUT CONTROL FOR STRESS PERIOD    2   TIME STEP   89
    SAVE HEAD FOR ALL LAYERS
 SOLVING FOR ZETA FOR LAYER     1 ZONE     2

     703 UPPER PART EQS.       717 LOWER PART EQS.    BAND WIDTH + 1 =   33
 STRESS PERIOD=  2 TIMESTEP= 89 LAYER=  1 ZONE=  2 ACTIVE CELLS= 1420 NUMBER OF EQUATIONS=    1420
 SOLVING FOR ZETA FOR LAYER     2 ZONE     2

     629 UPPER PART EQS.       642 LOWER PART EQS.    BAND WIDTH + 1 =   35
 STRESS PERIOD=  2 TIMESTEP= 89 LAYER=  2 ZONE=  2 ACTIVE CELLS= 1271 NUMBER OF EQUATIONS=    1271
 UBUDSV SAVING "      ZETASRF  1" ON UNIT 55 AT TIME STEP 89, STRESS PERIOD    2

 HEAD WILL BE SAVED ON UNIT   51 AT END OF TIME STEP   89, STRESS PERIOD    2
 
 SOLVING FOR HEAD 
                                                   Max.-Head-Change                         Max.-Flux-Residual
  Residual-Control   Outer-Iter.   Inner-Iter.     Column Row Layer    Maximum-Head-Change  Column Row Layer    Maximum-Flux-Residual          L2-NORM 
          0                 1           1            36   31     2      -0.7109130308E-03      36   31    2        -0.3310508728E+00      0.7952227858E+00
          0                 2           1            38   30     2      -0.6358987442E-04      39   29    2        -0.8728821693E-02      0.4448170198E-01
          0                 3           1            37   31     2      -0.4511047424E-04      37   31    2        -0.2948629206E-02      0.2175371907E-01
          0                 4           1            39   29     2      -0.2493282295E-04      39   29    2        -0.2079354003E-02      0.1576695429E-01
          0                 5           1            37   31     2      -0.2306450868E-04      37   31    2        -0.1392116820E-02      0.1298264007E-01
          0                 6           1            34   32     2      -0.1562499763E-04      39   29    2        -0.1146350884E-02      0.1114668369E-01
          0                 7           1            37   31     2      -0.1476316764E-04      37   31    2        -0.9523041004E-03      0.9735063374E-02
          0                 8           1            34   32     2      -0.1165747876E-04      39   29    2        -0.7601337023E-03      0.8629406030E-02
          0                 9           1            37   31     2      -0.1044362916E-04      37   31    2        -0.7223831803E-03      0.7700031974E-02
          0                10           1            34   32     2      -0.9112913596E-05      33   31    2        -0.5757825612E-03      0.6898924075E-02

    ------------------------------------------------
       NWT REQUIRED           10 OUTER ITERATIONS 
       AND A TOTAL OF         10 INNER ITERATIONS.
    ------------------------------------------------

 OUTPUT CONTROL FOR STRESS PERIOD    2   TIME STEP   90
    SAVE HEAD FOR ALL LAYERS
 SOLVING FOR ZETA FOR LAYER     1 ZONE     2

     699 UPPER PART EQS.       697 LOWER PART EQS.    BAND WIDTH + 1 =   34
 STRESS PERIOD=  2 TIMESTEP= 90 LAYER=  1 ZONE=  2 ACTIVE CELLS= 1396 NUMBER OF EQUATIONS=    1396
 SOLVING FOR ZETA FOR LAYER     2 ZONE     2

     629 UPPER PART EQS.       642 LOWER PART EQS.    BAND WIDTH + 1 =   35
 STRESS PERIOD=  2 TIMESTEP= 90 LAYER=  2 ZONE=  2 ACTIVE CELLS= 1271 NUMBER OF EQUATIONS=    1271
 UBUDSV SAVING "      ZETASRF  1" ON UNIT 55 AT TIME STEP 90, STRESS PERIOD    2

 HEAD WILL BE SAVED ON UNIT   51 AT END OF TIME STEP   90, STRESS PERIOD    2
 
 SOLVING FOR HEAD 
                                                   Max.-Head-Change                         Max.-Flux-Residual
  Residual-Control   Outer-Iter.   Inner-Iter.     Column Row Layer    Maximum-Head-Change  Column Row Layer    Maximum-Flux-Residual          L2-NORM 
          0                 1           1            36   31     2      -0.7155647074E-03      36   31    2        -0.3350882530E+00      0.9196631497E+00
          0                 2           1            34   32     2      -0.5842368059E-04      39   29    2        -0.8612784374E-02      0.4011620425E-01
          0                 3           1            37   31     2      -0.3913906966E-04      37   31    2        -0.2840971095E-02      0.1706934860E-01
          0                 4           1            34   32     2      -0.1835727800E-04      39   29    2        -0.1638055185E-02      0.1118797954E-01
          0                 5           1            37   31     2      -0.1663794673E-04      37   31    2        -0.1098017594E-02      0.8859263612E-02
          0                 6           1            34   32     2      -0.1153036175E-04      39   29    2        -0.7958019329E-03      0.7548882793E-02
          0                 7           1            37   31     2      -0.1012343989E-04      37   31    2        -0.7007427891E-03      0.6611772170E-02
          0                 8           1            34   32     2      -0.8427233815E-05      33   31    2        -0.5425195689E-03      0.5915975887E-02

    ------------------------------------------------
       NWT REQUIRED            8 OUTER ITERATIONS 
       AND A TOTAL OF          8 INNER ITERATIONS.
    ------------------------------------------------

 OUTPUT CONTROL FOR STRESS PERIOD    2   TIME STEP   91
    SAVE HEAD FOR ALL LAYERS
 SOLVING FOR ZETA FOR LAYER     1 ZONE     2

     692 UPPER PART EQS.       717 LOWER PART EQS.    BAND WIDTH + 1 =   44
 STRESS PERIOD=  2 TIMESTEP= 91 LAYER=  1 ZONE=  2 ACTIVE CELLS= 1409 NUMBER OF EQUATIONS=    1409
 SOLVING FOR ZETA FOR LAYER     2 ZONE     2

     629 UPPER PART EQS.       642 LOWER PART EQS.    BAND WIDTH + 1 =   35
 STRESS PERIOD=  2 TIMESTEP= 91 LAYER=  2 ZONE=  2 ACTIVE CELLS= 1271 NUMBER OF EQUATIONS=    1271
 UBUDSV SAVING "      ZETASRF  1" ON UNIT 55 AT TIME STEP 91, STRESS PERIOD    2

 HEAD WILL BE SAVED ON UNIT   51 AT END OF TIME STEP   91, STRESS PERIOD    2
 
 SOLVING FOR HEAD 
                                                   Max.-Head-Change                         Max.-Flux-Residual
  Residual-Control   Outer-Iter.   Inner-Iter.     Column Row Layer    Maximum-Head-Change  Column Row Layer    Maximum-Flux-Residual          L2-NORM 
          0                 1           1            36   31     2      -0.7191781455E-03      36   31    2        -0.3391289711E+00      0.8040317149E+00
          0                 2           1            38   30     2      -0.5872612744E-04      39   29    2        -0.8586025577E-02      0.3855553179E-01
          0                 3           1            37   31     2      -0.4140803158E-04      37   31    2        -0.2860467707E-02      0.1754821803E-01
          0                 4           1            39   29     2      -0.1898971539E-04      39   29    2        -0.1752471154E-02      0.1169811610E-01
          0                 5           1            37   31     2      -0.1760381165E-04      37   31    2        -0.1158387983E-02      0.9126934812E-02
          0                 6           1            34   32     2      -0.1173239601E-04      39   29    2        -0.8576251986E-03      0.7585474217E-02
          0                 7           1            37   31     2      -0.1017489913E-04      37   31    2        -0.7451401380E-03      0.6479815268E-02
          0                 8           1            34   32     2      -0.8660884583E-05      33   31    2        -0.5353213984E-03      0.5659300947E-02

    ------------------------------------------------
       NWT REQUIRED            8 OUTER ITERATIONS 
       AND A TOTAL OF          8 INNER ITERATIONS.
    ------------------------------------------------

 OUTPUT CONTROL FOR STRESS PERIOD    2   TIME STEP   92
    SAVE HEAD FOR ALL LAYERS
 SOLVING FOR ZETA FOR LAYER     1 ZONE     2

     697 UPPER PART EQS.       717 LOWER PART EQS.    BAND WIDTH + 1 =   39
 STRESS PERIOD=  2 TIMESTEP= 92 LAYER=  1 ZONE=  2 ACTIVE CELLS= 1414 NUMBER OF EQUATIONS=    1414
 SOLVING FOR ZETA FOR LAYER     2 ZONE     2

     629 UPPER PART EQS.       642 LOWER PART EQS.    BAND WIDTH + 1 =   35
 STRESS PERIOD=  2 TIMESTEP= 92 LAYER=  2 ZONE=  2 ACTIVE CELLS= 1271 NUMBER OF EQUATIONS=    1271
 UBUDSV SAVING "      ZETASRF  1" ON UNIT 55 AT TIME STEP 92, STRESS PERIOD    2

 HEAD WILL BE SAVED ON UNIT   51 AT END OF TIME STEP   92, STRESS PERIOD    2
 
 SOLVING FOR HEAD 
                                                   Max.-Head-Change                         Max.-Flux-Residual
  Residual-Control   Outer-Iter.   Inner-Iter.     Column Row Layer    Maximum-Head-Change  Column Row Layer    Maximum-Flux-Residual          L2-NORM 
          0                 1           1            36   31     2      -0.7226340429E-03      36   31    2        -0.3433685303E+00      0.6041106393E+00
          0                 2           1            34   32     2      -0.5917538612E-04      39   29    2        -0.8516593977E-02      0.3585438780E-01
          0                 3           1            37   31     2      -0.3796127756E-04      37   31    2        -0.2730311079E-02      0.1643804976E-01
          0                 4           1            39   29     2      -0.1915056932E-04      39   29    2        -0.1743246015E-02      0.1114494929E-01
          0                 5           1            37   31     2      -0.1626965232E-04      37   31    2        -0.1151307154E-02      0.8697168903E-02
          0                 6           1            34   32     2      -0.1151525556E-04      39   29    2        -0.8524319083E-03      0.7212405210E-02
          0                 7           1            37   31     2      -0.9684606726E-05      37   31    2        -0.7422702112E-03      0.6158864809E-02

    ------------------------------------------------
       NWT REQUIRED            7 OUTER ITERATIONS 
       AND A TOTAL OF          7 INNER ITERATIONS.
    ------------------------------------------------

 OUTPUT CONTROL FOR STRESS PERIOD    2   TIME STEP   93
    SAVE HEAD FOR ALL LAYERS
 SOLVING FOR ZETA FOR LAYER     1 ZONE     2

     703 UPPER PART EQS.       717 LOWER PART EQS.    BAND WIDTH + 1 =   33
 STRESS PERIOD=  2 TIMESTEP= 93 LAYER=  1 ZONE=  2 ACTIVE CELLS= 1420 NUMBER OF EQUATIONS=    1420
 SOLVING FOR ZETA FOR LAYER     2 ZONE     2

     629 UPPER PART EQS.       642 LOWER PART EQS.    BAND WIDTH + 1 =   35
 STRESS PERIOD=  2 TIMESTEP= 93 LAYER=  2 ZONE=  2 ACTIVE CELLS= 1271 NUMBER OF EQUATIONS=    1271
 UBUDSV SAVING "      ZETASRF  1" ON UNIT 55 AT TIME STEP 93, STRESS PERIOD    2

 HEAD WILL BE SAVED ON UNIT   51 AT END OF TIME STEP   93, STRESS PERIOD    2
 
 SOLVING FOR HEAD 
                                                   Max.-Head-Change                         Max.-Flux-Residual
  Residual-Control   Outer-Iter.   Inner-Iter.     Column Row Layer    Maximum-Head-Change  Column Row Layer    Maximum-Flux-Residual          L2-NORM 
          0                 1           1            36   31     2      -0.7264753042E-03      36   31    2        -0.3476223946E+00      0.5867470910E+00
          0                 2           1            38   30     2      -0.6407842001E-04      39   29    2        -0.8585947543E-02      0.3819293805E-01
          0                 3           1            37   31     2      -0.3993504351E-04      37   31    2        -0.2821629953E-02      0.1910088892E-01
          0                 4           1            39   29     2      -0.2358085573E-04      39   29    2        -0.2047706656E-02      0.1361839972E-01
          0                 5           1            37   31     2      -0.1929998940E-04      37   31    2        -0.1335578672E-02      0.1098436724E-01
          0                 6           1            34   32     2      -0.1470286850E-04      39   29    2        -0.1049218408E-02      0.9334081947E-02
          0                 7           1            37   31     2      -0.1209335388E-04      37   31    2        -0.9044828279E-03      0.8126948602E-02
          0                 8           1            34   32     2      -0.1072698245E-04      39   29    2        -0.6697371122E-03      0.7166296748E-02
          0                 9           1            37   31     2      -0.8613928079E-05      37   31    2        -0.6760638807E-03      0.6414385743E-02

    ------------------------------------------------
       NWT REQUIRED            9 OUTER ITERATIONS 
       AND A TOTAL OF          9 INNER ITERATIONS.
    ------------------------------------------------

 OUTPUT CONTROL FOR STRESS PERIOD    2   TIME STEP   94
    SAVE HEAD FOR ALL LAYERS
 SOLVING FOR ZETA FOR LAYER     1 ZONE     2

     701 UPPER PART EQS.       709 LOWER PART EQS.    BAND WIDTH + 1 =   29
 STRESS PERIOD=  2 TIMESTEP= 94 LAYER=  1 ZONE=  2 ACTIVE CELLS= 1410 NUMBER OF EQUATIONS=    1410
 SOLVING FOR ZETA FOR LAYER     2 ZONE     2

     629 UPPER PART EQS.       642 LOWER PART EQS.    BAND WIDTH + 1 =   35
 STRESS PERIOD=  2 TIMESTEP= 94 LAYER=  2 ZONE=  2 ACTIVE CELLS= 1271 NUMBER OF EQUATIONS=    1271
 UBUDSV SAVING "      ZETASRF  1" ON UNIT 55 AT TIME STEP 94, STRESS PERIOD    2

 HEAD WILL BE SAVED ON UNIT   51 AT END OF TIME STEP   94, STRESS PERIOD    2
 
 SOLVING FOR HEAD 
                                                   Max.-Head-Change                         Max.-Flux-Residual
  Residual-Control   Outer-Iter.   Inner-Iter.     Column Row Layer    Maximum-Head-Change  Column Row Layer    Maximum-Flux-Residual          L2-NORM 
          0                 1           1            36   31     2      -0.7309238821E-03      36   31    2        -0.3521776199E+00      0.9198684102E+00
          0                 2           1            38   30     2      -0.5666906519E-04      39   29    2        -0.8488790721E-02      0.4228751758E-01
          0                 3           1            37   31     2      -0.4130611312E-04      37   31    2        -0.2853866641E-02      0.1865980835E-01
          0                 4           1            39   29     2      -0.2119133523E-04      39   29    2        -0.1669032168E-02      0.1326594377E-01
          0                 5           1            37   31     2      -0.1903886211E-04      37   31    2        -0.1214973117E-02      0.1099334961E-01
          0                 6           1            34   32     2      -0.1412117760E-04      39   29    2        -0.9124518432E-03      0.9532492795E-02
          0                 7           1            37   31     2      -0.1206314677E-04      37   31    2        -0.8364897928E-03      0.8403502961E-02
          0                 8           1            34   32     2      -0.1065333774E-04      33   31    2        -0.6332155316E-03      0.7485303210E-02
          0                 9           1            37   31     2      -0.8749062938E-05      37   31    2        -0.6384083492E-03      0.6732569578E-02

    ------------------------------------------------
       NWT REQUIRED            9 OUTER ITERATIONS 
       AND A TOTAL OF          9 INNER ITERATIONS.
    ------------------------------------------------

 OUTPUT CONTROL FOR STRESS PERIOD    2   TIME STEP   95
    SAVE HEAD FOR ALL LAYERS
 SOLVING FOR ZETA FOR LAYER     1 ZONE     2

     692 UPPER PART EQS.       711 LOWER PART EQS.    BAND WIDTH + 1 =   38
 STRESS PERIOD=  2 TIMESTEP= 95 LAYER=  1 ZONE=  2 ACTIVE CELLS= 1403 NUMBER OF EQUATIONS=    1403
 SOLVING FOR ZETA FOR LAYER     2 ZONE     2

     629 UPPER PART EQS.       642 LOWER PART EQS.    BAND WIDTH + 1 =   35
 STRESS PERIOD=  2 TIMESTEP= 95 LAYER=  2 ZONE=  2 ACTIVE CELLS= 1271 NUMBER OF EQUATIONS=    1271
 UBUDSV SAVING "      ZETASRF  1" ON UNIT 55 AT TIME STEP 95, STRESS PERIOD    2

 HEAD WILL BE SAVED ON UNIT   51 AT END OF TIME STEP   95, STRESS PERIOD    2
 
 SOLVING FOR HEAD 
                                                   Max.-Head-Change                         Max.-Flux-Residual
  Residual-Control   Outer-Iter.   Inner-Iter.     Column Row Layer    Maximum-Head-Change  Column Row Layer    Maximum-Flux-Residual          L2-NORM 
          0                 1           1            36   31     2      -0.7352688910E-03      36   31    2        -0.3567304611E+00      0.9877842941E+00
          0                 2           1            38   30     2      -0.5707891941E-04      39   29    2        -0.8491383126E-02      0.4249110267E-01
          0                 3           1            37   31     2      -0.4479468435E-04      37   31    2        -0.2883882779E-02      0.1870022953E-01
          0                 4           1            39   29     2      -0.1854683540E-04      39   29    2        -0.1715004357E-02      0.1215881364E-01
          0                 5           1            37   31     2      -0.1934178770E-04      37   31    2        -0.1119407278E-02      0.9406647059E-02
          0                 6           1            34   32     2      -0.1091160173E-04      39   29    2        -0.8580891454E-03      0.7850662406E-02
          0                 7           1            37   31     2      -0.1127304681E-04      37   31    2        -0.6899791734E-03      0.6732555572E-02
          0                 8           1            34   32     2      -0.7952171340E-05      33   31    2        -0.5453429183E-03      0.5979928021E-02

    ------------------------------------------------
       NWT REQUIRED            8 OUTER ITERATIONS 
       AND A TOTAL OF          8 INNER ITERATIONS.
    ------------------------------------------------

 OUTPUT CONTROL FOR STRESS PERIOD    2   TIME STEP   96
    SAVE HEAD FOR ALL LAYERS
 SOLVING FOR ZETA FOR LAYER     1 ZONE     2

     699 UPPER PART EQS.       713 LOWER PART EQS.    BAND WIDTH + 1 =   34
 STRESS PERIOD=  2 TIMESTEP= 96 LAYER=  1 ZONE=  2 ACTIVE CELLS= 1412 NUMBER OF EQUATIONS=    1412
 SOLVING FOR ZETA FOR LAYER     2 ZONE     2

     629 UPPER PART EQS.       642 LOWER PART EQS.    BAND WIDTH + 1 =   35
 STRESS PERIOD=  2 TIMESTEP= 96 LAYER=  2 ZONE=  2 ACTIVE CELLS= 1271 NUMBER OF EQUATIONS=    1271
 UBUDSV SAVING "      ZETASRF  1" ON UNIT 55 AT TIME STEP 96, STRESS PERIOD    2

 HEAD WILL BE SAVED ON UNIT   51 AT END OF TIME STEP   96, STRESS PERIOD    2
 
 SOLVING FOR HEAD 
                                                   Max.-Head-Change                         Max.-Flux-Residual
  Residual-Control   Outer-Iter.   Inner-Iter.     Column Row Layer    Maximum-Head-Change  Column Row Layer    Maximum-Flux-Residual          L2-NORM 
          0                 1           1            36   31     2      -0.7406939763E-03      36   31    2        -0.3615865707E+00      0.1139024722E+01
          0                 2           1            34   32     2      -0.5521111539E-04      39   29    2        -0.8403916013E-02      0.3865230016E-01
          0                 3           1            37   31     2      -0.3948097402E-04      37   31    2        -0.2771258244E-02      0.1615398474E-01
          0                 4           1            39   29     2      -0.1702974514E-04      39   29    2        -0.1512079858E-02      0.1063865158E-01
          0                 5           1            37   31     2      -0.1599401406E-04      37   31    2        -0.1047111575E-02      0.8298708368E-02
          0                 6           1            34   32     2      -0.1052333859E-04      39   29    2        -0.7563422984E-03      0.6947389372E-02
          0                 7           1            37   31     2      -0.9498821608E-05      37   31    2        -0.6645031316E-03      0.5951256189E-02

    ------------------------------------------------
       NWT REQUIRED            7 OUTER ITERATIONS 
       AND A TOTAL OF          7 INNER ITERATIONS.
    ------------------------------------------------

 OUTPUT CONTROL FOR STRESS PERIOD    2   TIME STEP   97
    SAVE HEAD FOR ALL LAYERS
 SOLVING FOR ZETA FOR LAYER     1 ZONE     2

     702 UPPER PART EQS.       719 LOWER PART EQS.    BAND WIDTH + 1 =   38
 STRESS PERIOD=  2 TIMESTEP= 97 LAYER=  1 ZONE=  2 ACTIVE CELLS= 1421 NUMBER OF EQUATIONS=    1421
 SOLVING FOR ZETA FOR LAYER     2 ZONE     2

     629 UPPER PART EQS.       642 LOWER PART EQS.    BAND WIDTH + 1 =   35
 STRESS PERIOD=  2 TIMESTEP= 97 LAYER=  2 ZONE=  2 ACTIVE CELLS= 1271 NUMBER OF EQUATIONS=    1271
 UBUDSV SAVING "      ZETASRF  1" ON UNIT 55 AT TIME STEP 97, STRESS PERIOD    2

 HEAD WILL BE SAVED ON UNIT   51 AT END OF TIME STEP   97, STRESS PERIOD    2
 
 SOLVING FOR HEAD 
                                                   Max.-Head-Change                         Max.-Flux-Residual
  Residual-Control   Outer-Iter.   Inner-Iter.     Column Row Layer    Maximum-Head-Change  Column Row Layer    Maximum-Flux-Residual          L2-NORM 
          0                 1           1            36   31     2      -0.7451489306E-03      36   31    2        -0.3664216995E+00      0.9237387780E+00
          0                 2           1            38   30     2      -0.6038644501E-04      39   29    2        -0.8490897575E-02      0.4054886904E-01
          0                 3           1            37   31     2      -0.4537129078E-04      37   31    2        -0.2918745517E-02      0.2021941861E-01
          0                 4           1            39   29     2      -0.2222960755E-04      39   29    2        -0.2027065121E-02      0.1419530763E-01
          0                 5           1            37   31     2      -0.2172815445E-04      37   31    2        -0.1313448762E-02      0.1135369830E-01
          0                 6           1            39   29     2      -0.1325394067E-04      39   29    2        -0.1079466147E-02      0.9536063172E-02
          0                 7           1            37   31     2      -0.1352607986E-04      37   31    2        -0.8517897658E-03      0.8172954249E-02
          0                 8           1            34   32     2      -0.9501171239E-05      39   29    2        -0.6926371578E-03      0.7160212766E-02

    ------------------------------------------------
       NWT REQUIRED            8 OUTER ITERATIONS 
       AND A TOTAL OF          8 INNER ITERATIONS.
    ------------------------------------------------

 OUTPUT CONTROL FOR STRESS PERIOD    2   TIME STEP   98
    SAVE HEAD FOR ALL LAYERS
 SOLVING FOR ZETA FOR LAYER     1 ZONE     2

     705 UPPER PART EQS.       713 LOWER PART EQS.    BAND WIDTH + 1 =   30
 STRESS PERIOD=  2 TIMESTEP= 98 LAYER=  1 ZONE=  2 ACTIVE CELLS= 1418 NUMBER OF EQUATIONS=    1418
 SOLVING FOR ZETA FOR LAYER     2 ZONE     2

     629 UPPER PART EQS.       642 LOWER PART EQS.    BAND WIDTH + 1 =   35
 STRESS PERIOD=  2 TIMESTEP= 98 LAYER=  2 ZONE=  2 ACTIVE CELLS= 1271 NUMBER OF EQUATIONS=    1271
 UBUDSV SAVING "      ZETASRF  1" ON UNIT 55 AT TIME STEP 98, STRESS PERIOD    2

 HEAD WILL BE SAVED ON UNIT   51 AT END OF TIME STEP   98, STRESS PERIOD    2
 
 SOLVING FOR HEAD 
                                                   Max.-Head-Change                         Max.-Flux-Residual
  Residual-Control   Outer-Iter.   Inner-Iter.     Column Row Layer    Maximum-Head-Change  Column Row Layer    Maximum-Flux-Residual          L2-NORM 
          0                 1           1            36   31     2      -0.7514557410E-03      36   31    2        -0.3715171814E+00      0.7931266662E+00
          0                 2           1            34   32     2      -0.5751629798E-04      39   29    2        -0.8412215176E-02      0.3852495609E-01
          0                 3           1            37   31     2      -0.3695101734E-04      37   31    2        -0.2768364237E-02      0.1669121711E-01
          0                 4           1            34   32     2      -0.1912714291E-04      39   29    2        -0.1602019556E-02      0.1125691246E-01
          0                 5           1            37   31     2      -0.1624575560E-04      37   31    2        -0.1114812779E-02      0.9092265334E-02
          0                 6           1            34   32     2      -0.1217153576E-04      33   31    2        -0.8017580778E-03      0.7843071985E-02
          0                 7           1            37   31     2      -0.1027326363E-04      37   31    2        -0.7314645273E-03      0.6924106699E-02
          0                 8           1            34   32     2      -0.8838376410E-05      33   31    2        -0.5640953902E-03      0.6203102263E-02

    ------------------------------------------------
       NWT REQUIRED            8 OUTER ITERATIONS 
       AND A TOTAL OF          8 INNER ITERATIONS.
    ------------------------------------------------

 OUTPUT CONTROL FOR STRESS PERIOD    2   TIME STEP   99
    SAVE HEAD FOR ALL LAYERS
 SOLVING FOR ZETA FOR LAYER     1 ZONE     2

     696 UPPER PART EQS.       717 LOWER PART EQS.    BAND WIDTH + 1 =   42
 STRESS PERIOD=  2 TIMESTEP= 99 LAYER=  1 ZONE=  2 ACTIVE CELLS= 1413 NUMBER OF EQUATIONS=    1413
 SOLVING FOR ZETA FOR LAYER     2 ZONE     2

     629 UPPER PART EQS.       642 LOWER PART EQS.    BAND WIDTH + 1 =   35
 STRESS PERIOD=  2 TIMESTEP= 99 LAYER=  2 ZONE=  2 ACTIVE CELLS= 1271 NUMBER OF EQUATIONS=    1271
 UBUDSV SAVING "      ZETASRF  1" ON UNIT 55 AT TIME STEP 99, STRESS PERIOD    2

 HEAD WILL BE SAVED ON UNIT   51 AT END OF TIME STEP   99, STRESS PERIOD    2
 
 SOLVING FOR HEAD 
                                                   Max.-Head-Change                         Max.-Flux-Residual
  Residual-Control   Outer-Iter.   Inner-Iter.     Column Row Layer    Maximum-Head-Change  Column Row Layer    Maximum-Flux-Residual          L2-NORM 
          0                 1           1            36   31     2      -0.7562867030E-03      36   31    2        -0.3767495155E+00      0.7629261013E+00
          0                 2           1            38   30     2      -0.5804434530E-04      39   29    2        -0.8386622363E-02      0.3906907594E-01
          0                 3           1            37   31     2      -0.4246040063E-04      37   31    2        -0.2839543294E-02      0.1880875702E-01
          0                 4           1            39   29     2      -0.2087155478E-04      39   29    2        -0.1884043490E-02      0.1310731042E-01
          0                 5           1            37   31     2      -0.1954313376E-04      37   31    2        -0.1262129915E-02      0.1038470294E-01
          0                 6           1            39   29     2      -0.1273876794E-04      39   29    2        -0.9773474199E-03      0.8691426023E-02
          0                 7           1            37   31     2      -0.1192839788E-04      37   31    2        -0.8224483328E-03      0.7436614666E-02
          0                 8           1            34   32     2      -0.9175439071E-05      39   29    2        -0.6152582341E-03      0.6504539901E-02

    ------------------------------------------------
       NWT REQUIRED            8 OUTER ITERATIONS 
       AND A TOTAL OF          8 INNER ITERATIONS.
    ------------------------------------------------

 OUTPUT CONTROL FOR STRESS PERIOD    2   TIME STEP  100
    SAVE HEAD FOR ALL LAYERS
 SOLVING FOR ZETA FOR LAYER     1 ZONE     2

     703 UPPER PART EQS.       713 LOWER PART EQS.    BAND WIDTH + 1 =   31
 STRESS PERIOD=  2 TIMESTEP=100 LAYER=  1 ZONE=  2 ACTIVE CELLS= 1416 NUMBER OF EQUATIONS=    1416
 SOLVING FOR ZETA FOR LAYER     2 ZONE     2

     629 UPPER PART EQS.       642 LOWER PART EQS.    BAND WIDTH + 1 =   35
 STRESS PERIOD=  2 TIMESTEP=100 LAYER=  2 ZONE=  2 ACTIVE CELLS= 1271 NUMBER OF EQUATIONS=    1271
 UBUDSV SAVING "      ZETASRF  1" ON UNIT 55 AT TIME STEP100, STRESS PERIOD    2

 HEAD WILL BE SAVED ON UNIT   51 AT END OF TIME STEP  100, STRESS PERIOD    2
 
 SOLVING FOR HEAD 
                                                   Max.-Head-Change                         Max.-Flux-Residual
  Residual-Control   Outer-Iter.   Inner-Iter.     Column Row Layer    Maximum-Head-Change  Column Row Layer    Maximum-Flux-Residual          L2-NORM 
          0                 1           1            36   31     2      -0.7619041298E-03      36   31    2        -0.3821325302E+00      0.8253541379E+00
          0                 2           1            34   32     2      -0.5697602671E-04      39   29    2        -0.8350490774E-02      0.3668825065E-01
          0                 3           1            37   31     2      -0.3988992493E-04      37   31    2        -0.2764096377E-02      0.1709140692E-01
          0                 4           1            39   29     2      -0.1916791599E-04      39   29    2        -0.1753532116E-02      0.1190198387E-01
          0                 5           1            37   31     2      -0.1799873399E-04      37   31    2        -0.1164249881E-02      0.9563454711E-02
          0                 6           1            34   32     2      -0.1196370460E-04      39   29    2        -0.8939648882E-03      0.8165014106E-02
          0                 7           1            37   31     2      -0.1098788920E-04      37   31    2        -0.7662279623E-03      0.7095454473E-02
          0                 8           1            34   32     2      -0.8818181257E-05      33   31    2        -0.5801236741E-03      0.6313486461E-02

    ------------------------------------------------
       NWT REQUIRED            8 OUTER ITERATIONS 
       AND A TOTAL OF          8 INNER ITERATIONS.
    ------------------------------------------------

 OUTPUT CONTROL FOR STRESS PERIOD    2   TIME STEP  101
    SAVE HEAD FOR ALL LAYERS
 SOLVING FOR ZETA FOR LAYER     1 ZONE     2

     707 UPPER PART EQS.       713 LOWER PART EQS.    BAND WIDTH + 1 =   28
 STRESS PERIOD=  2 TIMESTEP=101 LAYER=  1 ZONE=  2 ACTIVE CELLS= 1420 NUMBER OF EQUATIONS=    1420
 SOLVING FOR ZETA FOR LAYER     2 ZONE     2

     629 UPPER PART EQS.       642 LOWER PART EQS.    BAND WIDTH + 1 =   35
 STRESS PERIOD=  2 TIMESTEP=101 LAYER=  2 ZONE=  2 ACTIVE CELLS= 1271 NUMBER OF EQUATIONS=    1271
 UBUDSV SAVING "      ZETASRF  1" ON UNIT 55 AT TIME STEP101, STRESS PERIOD    2

 HEAD WILL BE SAVED ON UNIT   51 AT END OF TIME STEP  101, STRESS PERIOD    2
 
 SOLVING FOR HEAD 
                                                   Max.-Head-Change                         Max.-Flux-Residual
  Residual-Control   Outer-Iter.   Inner-Iter.     Column Row Layer    Maximum-Head-Change  Column Row Layer    Maximum-Flux-Residual          L2-NORM 
          0                 1           1            36   31     2      -0.7682577693E-03      36   31    2        -0.3876757622E+00      0.1267917814E+01
          0                 2           1            38   30     2      -0.5549715361E-04      39   29    2        -0.8384618050E-02      0.4070599092E-01
          0                 3           1            37   31     2      -0.4437854115E-04      37   31    2        -0.2928278378E-02      0.1858929616E-01
          0                 4           1            39   29     2      -0.1974690529E-04      39   29    2        -0.1747266210E-02      0.1279570569E-01
          0                 5           1            37   31     2      -0.1982357168E-04      37   31    2        -0.1202157546E-02      0.1024627472E-01
          0                 6           1            34   32     2      -0.1272982705E-04      39   29    2        -0.9256940144E-03      0.8697875861E-02
          0                 7           1            37   31     2      -0.1180744324E-04      37   31    2        -0.7944162024E-03      0.7546300281E-02
          0                 8           1            34   32     2      -0.9655439230E-05      33   31    2        -0.6079654957E-03      0.6705733801E-02

    ------------------------------------------------
       NWT REQUIRED            8 OUTER ITERATIONS 
       AND A TOTAL OF          8 INNER ITERATIONS.
    ------------------------------------------------

 OUTPUT CONTROL FOR STRESS PERIOD    2   TIME STEP  102
    SAVE HEAD FOR ALL LAYERS
 SOLVING FOR ZETA FOR LAYER     1 ZONE     2

     707 UPPER PART EQS.       711 LOWER PART EQS.    BAND WIDTH + 1 =   29
 STRESS PERIOD=  2 TIMESTEP=102 LAYER=  1 ZONE=  2 ACTIVE CELLS= 1418 NUMBER OF EQUATIONS=    1418
 SOLVING FOR ZETA FOR LAYER     2 ZONE     2

     631 UPPER PART EQS.       642 LOWER PART EQS.    BAND WIDTH + 1 =   35
 STRESS PERIOD=  2 TIMESTEP=102 LAYER=  2 ZONE=  2 ACTIVE CELLS= 1273 NUMBER OF EQUATIONS=    1273
 UBUDSV SAVING "      ZETASRF  1" ON UNIT 55 AT TIME STEP102, STRESS PERIOD    2

 HEAD WILL BE SAVED ON UNIT   51 AT END OF TIME STEP  102, STRESS PERIOD    2
 
 SOLVING FOR HEAD 
                                                   Max.-Head-Change                         Max.-Flux-Residual
  Residual-Control   Outer-Iter.   Inner-Iter.     Column Row Layer    Maximum-Head-Change  Column Row Layer    Maximum-Flux-Residual          L2-NORM 
          0                 1           1            36   31     2      -0.7736180353E-03      36   31    2        -0.3934545517E+00      0.7502979022E+00
          0                 2           1            34   32     2      -0.5730467489E-04      39   29    2        -0.8293678677E-02      0.3482698222E-01
          0                 3           1            37   31     2      -0.3831703745E-04      37   31    2        -0.2727622213E-02      0.1619720694E-01
          0                 4           1            34   32     2      -0.1839483104E-04      39   29    2        -0.1707917040E-02      0.1099115846E-01
          0                 5           1            37   31     2      -0.1653837097E-04      37   31    2        -0.1134426631E-02      0.8663489975E-02
          0                 6           1            34   32     2      -0.1161189506E-04      39   29    2        -0.8332172291E-03      0.7279039251E-02
          0                 7           1            37   31     2      -0.9717593687E-05      37   31    2        -0.7364822561E-03      0.6297036876E-02

    ------------------------------------------------
       NWT REQUIRED            7 OUTER ITERATIONS 
       AND A TOTAL OF          7 INNER ITERATIONS.
    ------------------------------------------------

 OUTPUT CONTROL FOR STRESS PERIOD    2   TIME STEP  103
    SAVE HEAD FOR ALL LAYERS
 SOLVING FOR ZETA FOR LAYER     1 ZONE     2

     702 UPPER PART EQS.       725 LOWER PART EQS.    BAND WIDTH + 1 =   45
 STRESS PERIOD=  2 TIMESTEP=103 LAYER=  1 ZONE=  2 ACTIVE CELLS= 1427 NUMBER OF EQUATIONS=    1427
 SOLVING FOR ZETA FOR LAYER     2 ZONE     2

     631 UPPER PART EQS.       642 LOWER PART EQS.    BAND WIDTH + 1 =   35
 STRESS PERIOD=  2 TIMESTEP=103 LAYER=  2 ZONE=  2 ACTIVE CELLS= 1273 NUMBER OF EQUATIONS=    1273
 UBUDSV SAVING "      ZETASRF  1" ON UNIT 55 AT TIME STEP103, STRESS PERIOD    2

 HEAD WILL BE SAVED ON UNIT   51 AT END OF TIME STEP  103, STRESS PERIOD    2
 
 SOLVING FOR HEAD 
                                                   Max.-Head-Change                         Max.-Flux-Residual
  Residual-Control   Outer-Iter.   Inner-Iter.     Column Row Layer    Maximum-Head-Change  Column Row Layer    Maximum-Flux-Residual          L2-NORM 
          0                 1           1            36   31     2      -0.7784837462E-03      36   31    2        -0.3992486000E+00      0.6681331075E+00
          0                 2           1            38   30     2      -0.5914769026E-04      39   29    2        -0.8274765731E-02      0.3597731023E-01
          0                 3           1            37   31     2      -0.4011111639E-04      37   31    2        -0.2712962302E-02      0.1794327030E-01
          0                 4           1            39   29     2      -0.2066468075E-04      39   29    2        -0.1907156007E-02      0.1251386270E-01
          0                 5           1            37   31     2      -0.1855928065E-04      37   31    2        -0.1229940269E-02      0.9917078430E-02
          0                 6           1            34   32     2      -0.1262864443E-04      39   29    2        -0.9605638448E-03      0.8334684235E-02
          0                 7           1            37   31     2      -0.1133296631E-04      37   31    2        -0.8039447812E-03      0.7165184840E-02
          0                 8           1            34   32     2      -0.9117865353E-05      39   29    2        -0.6001052040E-03      0.6301723283E-02

    ------------------------------------------------
       NWT REQUIRED            8 OUTER ITERATIONS 
       AND A TOTAL OF          8 INNER ITERATIONS.
    ------------------------------------------------

 OUTPUT CONTROL FOR STRESS PERIOD    2   TIME STEP  104
    SAVE HEAD FOR ALL LAYERS
 SOLVING FOR ZETA FOR LAYER     1 ZONE     2

     705 UPPER PART EQS.       719 LOWER PART EQS.    BAND WIDTH + 1 =   36
 STRESS PERIOD=  2 TIMESTEP=104 LAYER=  1 ZONE=  2 ACTIVE CELLS= 1424 NUMBER OF EQUATIONS=    1424
 SOLVING FOR ZETA FOR LAYER     2 ZONE     2

     631 UPPER PART EQS.       642 LOWER PART EQS.    BAND WIDTH + 1 =   35
 STRESS PERIOD=  2 TIMESTEP=104 LAYER=  2 ZONE=  2 ACTIVE CELLS= 1273 NUMBER OF EQUATIONS=    1273
 UBUDSV SAVING "      ZETASRF  1" ON UNIT 55 AT TIME STEP104, STRESS PERIOD    2

 HEAD WILL BE SAVED ON UNIT   51 AT END OF TIME STEP  104, STRESS PERIOD    2
 
 SOLVING FOR HEAD 
                                                   Max.-Head-Change                         Max.-Flux-Residual
  Residual-Control   Outer-Iter.   Inner-Iter.     Column Row Layer    Maximum-Head-Change  Column Row Layer    Maximum-Flux-Residual          L2-NORM 
          0                 1           1            36   31     2      -0.7850636870E-03      36   31    2        -0.4054031372E+00      0.8375376432E+00
          0                 2           1            34   32     2      -0.5599656265E-04      39   29    2        -0.8200219157E-02      0.3897256010E-01
          0                 3           1            37   31     2      -0.3783509231E-04      37   31    2        -0.2642979365E-02      0.1748436818E-01
          0                 4           1            39   29     2      -0.2028423300E-04      39   29    2        -0.1668565414E-02      0.1242519581E-01
          0                 5           1            37   31     2      -0.1780344736E-04      37   31    2        -0.1166857440E-02      0.1019748078E-01
          0                 6           1            34   32     2      -0.1339776315E-04      39   29    2        -0.8895057037E-03      0.8772961457E-02
          0                 7           1            37   31     2      -0.1127417272E-04      37   31    2        -0.8031358502E-03      0.7712036410E-02
          0                 8           1            34   32     2      -0.1003377553E-04      33   31    2        -0.6030606289E-03      0.6848353848E-02
          0                 9           1            37   31     2      -0.8109990958E-05      37   31    2        -0.6138484013E-03      0.6157807889E-02

    ------------------------------------------------
       NWT REQUIRED            9 OUTER ITERATIONS 
       AND A TOTAL OF          9 INNER ITERATIONS.
    ------------------------------------------------

 OUTPUT CONTROL FOR STRESS PERIOD    2   TIME STEP  105
    SAVE HEAD FOR ALL LAYERS
 SOLVING FOR ZETA FOR LAYER     1 ZONE     2

     709 UPPER PART EQS.       709 LOWER PART EQS.    BAND WIDTH + 1 =   29
 STRESS PERIOD=  2 TIMESTEP=105 LAYER=  1 ZONE=  2 ACTIVE CELLS= 1418 NUMBER OF EQUATIONS=    1418
 SOLVING FOR ZETA FOR LAYER     2 ZONE     2

     631 UPPER PART EQS.       642 LOWER PART EQS.    BAND WIDTH + 1 =   35
 STRESS PERIOD=  2 TIMESTEP=105 LAYER=  2 ZONE=  2 ACTIVE CELLS= 1273 NUMBER OF EQUATIONS=    1273
 UBUDSV SAVING "      ZETASRF  1" ON UNIT 55 AT TIME STEP105, STRESS PERIOD    2

 HEAD WILL BE SAVED ON UNIT   51 AT END OF TIME STEP  105, STRESS PERIOD    2
 
 SOLVING FOR HEAD 
                                                   Max.-Head-Change                         Max.-Flux-Residual
  Residual-Control   Outer-Iter.   Inner-Iter.     Column Row Layer    Maximum-Head-Change  Column Row Layer    Maximum-Flux-Residual          L2-NORM 
          0                 1           1            36   31     2      -0.7913324073E-03      36   31    2        -0.4116387367E+00      0.8774393383E+00
          0                 2           1            38   30     2      -0.5813983980E-04      39   29    2        -0.8252952908E-02      0.3969030219E-01
          0                 3           1            37   31     2      -0.4430610188E-04      37   31    2        -0.2809226366E-02      0.1955342427E-01
          0                 4           1            39   29     2      -0.2107375721E-04      39   29    2        -0.1970182798E-02      0.1348436487E-01
          0                 5           1            37   31     2      -0.2065900187E-04      37   31    2        -0.1241096230E-02      0.1059088783E-01
          0                 6           1            39   29     2      -0.1218829302E-04      39   29    2        -0.1026079722E-02      0.8799139616E-02
          0                 7           1            37   31     2      -0.1280456669E-04      37   31    2        -0.7781151567E-03      0.7458167405E-02
          0                 8           1            34   32     2      -0.8432899060E-05      39   29    2        -0.6476266732E-03      0.6511344979E-02

    ------------------------------------------------
       NWT REQUIRED            8 OUTER ITERATIONS 
       AND A TOTAL OF          8 INNER ITERATIONS.
    ------------------------------------------------

 OUTPUT CONTROL FOR STRESS PERIOD    2   TIME STEP  106
    SAVE HEAD FOR ALL LAYERS
 SOLVING FOR ZETA FOR LAYER     1 ZONE     2

     707 UPPER PART EQS.       715 LOWER PART EQS.    BAND WIDTH + 1 =   32
 STRESS PERIOD=  2 TIMESTEP=106 LAYER=  1 ZONE=  2 ACTIVE CELLS= 1422 NUMBER OF EQUATIONS=    1422
 SOLVING FOR ZETA FOR LAYER     2 ZONE     2

     631 UPPER PART EQS.       642 LOWER PART EQS.    BAND WIDTH + 1 =   35
 STRESS PERIOD=  2 TIMESTEP=106 LAYER=  2 ZONE=  2 ACTIVE CELLS= 1273 NUMBER OF EQUATIONS=    1273
 UBUDSV SAVING "      ZETASRF  1" ON UNIT 55 AT TIME STEP106, STRESS PERIOD    2

 HEAD WILL BE SAVED ON UNIT   51 AT END OF TIME STEP  106, STRESS PERIOD    2
 
 SOLVING FOR HEAD 
                                                   Max.-Head-Change                         Max.-Flux-Residual
  Residual-Control   Outer-Iter.   Inner-Iter.     Column Row Layer    Maximum-Head-Change  Column Row Layer    Maximum-Flux-Residual          L2-NORM 
          0                 1           1            36   31     2      -0.7990905791E-03      36   31    2        -0.4182591438E+00      0.8544339487E+00
          0                 2           1            34   32     2      -0.5399358325E-04      39   29    2        -0.8166094845E-02      0.3898845977E-01
          0                 3           1            37   31     2      -0.3692823225E-04      37   31    2        -0.2666439083E-02      0.1641925321E-01
          0                 4           1            34   32     2      -0.1730661479E-04      39   29    2        -0.1463240935E-02      0.1083026040E-01
          0                 5           1            37   31     2      -0.1584330396E-04      37   31    2        -0.1012817962E-02      0.8719785190E-02
          0                 6           1            34   32     2      -0.1136711017E-04      33   31    2        -0.7481507746E-03      0.7511527165E-02
          0                 7           1            37   31     2      -0.9559341288E-05      37   31    2        -0.6606843619E-03      0.6614458802E-02

    ------------------------------------------------
       NWT REQUIRED            7 OUTER ITERATIONS 
       AND A TOTAL OF          7 INNER ITERATIONS.
    ------------------------------------------------

 OUTPUT CONTROL FOR STRESS PERIOD    2   TIME STEP  107
    SAVE HEAD FOR ALL LAYERS
 SOLVING FOR ZETA FOR LAYER     1 ZONE     2

     700 UPPER PART EQS.       719 LOWER PART EQS.    BAND WIDTH + 1 =   41
 STRESS PERIOD=  2 TIMESTEP=107 LAYER=  1 ZONE=  2 ACTIVE CELLS= 1419 NUMBER OF EQUATIONS=    1419
 SOLVING FOR ZETA FOR LAYER     2 ZONE     2

     631 UPPER PART EQS.       642 LOWER PART EQS.    BAND WIDTH + 1 =   35
 STRESS PERIOD=  2 TIMESTEP=107 LAYER=  2 ZONE=  2 ACTIVE CELLS= 1273 NUMBER OF EQUATIONS=    1273
 UBUDSV SAVING "      ZETASRF  1" ON UNIT 55 AT TIME STEP107, STRESS PERIOD    2

 HEAD WILL BE SAVED ON UNIT   51 AT END OF TIME STEP  107, STRESS PERIOD    2
 
 SOLVING FOR HEAD 
                                                   Max.-Head-Change                         Max.-Flux-Residual
  Residual-Control   Outer-Iter.   Inner-Iter.     Column Row Layer    Maximum-Head-Change  Column Row Layer    Maximum-Flux-Residual          L2-NORM 
          0                 1           1            36   31     2      -0.8055837789E-03      36   31    2        -0.4248847961E+00      0.8973834212E+00
          0                 2           1            38   30     2      -0.5530213831E-04      39   29    2        -0.8185048730E-02      0.4087839600E-01
          0                 3           1            37   31     2      -0.4621793637E-04      37   31    2        -0.2786937312E-02      0.1961014216E-01
          0                 4           1            39   29     2      -0.1943497385E-04      39   29    2        -0.1787450705E-02      0.1343011618E-01
          0                 5           1            37   31     2      -0.2086543615E-04      37   31    2        -0.1176987635E-02      0.1053083491E-01
          0                 6           1            39   29     2      -0.1154166603E-04      39   29    2        -0.9426057282E-03      0.8747326884E-02
          0                 7           1            37   31     2      -0.1254241676E-04      37   31    2        -0.7361066230E-03      0.7375990564E-02
          0                 8           1            34   32     2      -0.8116948714E-05      39   29    2        -0.5927886027E-03      0.6440404402E-02

    ------------------------------------------------
       NWT REQUIRED            8 OUTER ITERATIONS 
       AND A TOTAL OF          8 INNER ITERATIONS.
    ------------------------------------------------

 OUTPUT CONTROL FOR STRESS PERIOD    2   TIME STEP  108
    SAVE HEAD FOR ALL LAYERS
 SOLVING FOR ZETA FOR LAYER     1 ZONE     2

     707 UPPER PART EQS.       719 LOWER PART EQS.    BAND WIDTH + 1 =   34
 STRESS PERIOD=  2 TIMESTEP=108 LAYER=  1 ZONE=  2 ACTIVE CELLS= 1426 NUMBER OF EQUATIONS=    1426
 SOLVING FOR ZETA FOR LAYER     2 ZONE     2

     631 UPPER PART EQS.       642 LOWER PART EQS.    BAND WIDTH + 1 =   35
 STRESS PERIOD=  2 TIMESTEP=108 LAYER=  2 ZONE=  2 ACTIVE CELLS= 1273 NUMBER OF EQUATIONS=    1273
 UBUDSV SAVING "      ZETASRF  1" ON UNIT 55 AT TIME STEP108, STRESS PERIOD    2

 HEAD WILL BE SAVED ON UNIT   51 AT END OF TIME STEP  108, STRESS PERIOD    2
 
 SOLVING FOR HEAD 
                                                   Max.-Head-Change                         Max.-Flux-Residual
  Residual-Control   Outer-Iter.   Inner-Iter.     Column Row Layer    Maximum-Head-Change  Column Row Layer    Maximum-Flux-Residual          L2-NORM 
          0                 1           1            36   31     2      -0.8135605053E-03      36   31    2        -0.4318909645E+00      0.7623696174E+00
          0                 2           1            34   32     2      -0.5379320344E-04      39   29    2        -0.8080168015E-02      0.3582167081E-01
          0                 3           1            37   31     2      -0.3635373003E-04      37   31    2        -0.2597457622E-02      0.1537735990E-01
          0                 4           1            34   32     2      -0.1698742376E-04      39   29    2        -0.1477146871E-02      0.1036840039E-01
          0                 5           1            37   31     2      -0.1527044771E-04      37   31    2        -0.1025599792E-02      0.8174749780E-02
          0                 6           1            34   32     2      -0.1036852372E-04      39   29    2        -0.7515507102E-03      0.6913981265E-02
          0                 7           1            37   31     2      -0.9440766130E-05      37   31    2        -0.6521447054E-03      0.5962795892E-02

    ------------------------------------------------
       NWT REQUIRED            7 OUTER ITERATIONS 
       AND A TOTAL OF          7 INNER ITERATIONS.
    ------------------------------------------------

 OUTPUT CONTROL FOR STRESS PERIOD    2   TIME STEP  109
    SAVE HEAD FOR ALL LAYERS
 SOLVING FOR ZETA FOR LAYER     1 ZONE     2

     707 UPPER PART EQS.       717 LOWER PART EQS.    BAND WIDTH + 1 =   32
 STRESS PERIOD=  2 TIMESTEP=109 LAYER=  1 ZONE=  2 ACTIVE CELLS= 1424 NUMBER OF EQUATIONS=    1424
 SOLVING FOR ZETA FOR LAYER     2 ZONE     2

     631 UPPER PART EQS.       642 LOWER PART EQS.    BAND WIDTH + 1 =   35
 STRESS PERIOD=  2 TIMESTEP=109 LAYER=  2 ZONE=  2 ACTIVE CELLS= 1273 NUMBER OF EQUATIONS=    1273
 UBUDSV SAVING "      ZETASRF  1" ON UNIT 55 AT TIME STEP109, STRESS PERIOD    2

 HEAD WILL BE SAVED ON UNIT   51 AT END OF TIME STEP  109, STRESS PERIOD    2
 
 SOLVING FOR HEAD 
                                                   Max.-Head-Change                         Max.-Flux-Residual
  Residual-Control   Outer-Iter.   Inner-Iter.     Column Row Layer    Maximum-Head-Change  Column Row Layer    Maximum-Flux-Residual          L2-NORM 
          0                 1           1            36   31     2      -0.8204388168E-03      36   31    2        -0.4389858246E+00      0.8969319585E+00
          0                 2           1            38   30     2      -0.5739413491E-04      39   29    2        -0.8151124143E-02      0.4242388083E-01
          0                 3           1            37   31     2      -0.4209090037E-04      37   31    2        -0.2758631651E-02      0.2037896254E-01
          0                 4           1            39   29     2      -0.2313263141E-04      39   29    2        -0.1919887168E-02      0.1467738270E-01
          0                 5           1            37   31     2      -0.2166198029E-04      37   31    2        -0.1291553762E-02      0.1207561895E-01
          0                 6           1            34   32     2      -0.1473936811E-04      39   29    2        -0.1064826894E-02      0.1040210237E-01
          0                 7           1            37   31     2      -0.1403264592E-04      37   31    2        -0.8821947681E-03      0.9107933837E-02
          0                 8           1            34   32     2      -0.1092603383E-04      33   31    2        -0.7167074991E-03      0.8114692296E-02
          0                 9           1            37   31     2      -0.1002791454E-04      37   31    2        -0.6710808127E-03      0.7242572555E-02
          0                10           1            34   32     2      -0.8532471102E-05      33   31    2        -0.5539604084E-03      0.6518193738E-02

    ------------------------------------------------
       NWT REQUIRED           10 OUTER ITERATIONS 
       AND A TOTAL OF         10 INNER ITERATIONS.
    ------------------------------------------------

 OUTPUT CONTROL FOR STRESS PERIOD    2   TIME STEP  110
    SAVE HEAD FOR ALL LAYERS
 SOLVING FOR ZETA FOR LAYER     1 ZONE     2

     707 UPPER PART EQS.       705 LOWER PART EQS.    BAND WIDTH + 1 =   31
 STRESS PERIOD=  2 TIMESTEP=110 LAYER=  1 ZONE=  2 ACTIVE CELLS= 1412 NUMBER OF EQUATIONS=    1412
 SOLVING FOR ZETA FOR LAYER     2 ZONE     2

     631 UPPER PART EQS.       642 LOWER PART EQS.    BAND WIDTH + 1 =   35
 STRESS PERIOD=  2 TIMESTEP=110 LAYER=  2 ZONE=  2 ACTIVE CELLS= 1273 NUMBER OF EQUATIONS=    1273
 UBUDSV SAVING "      ZETASRF  1" ON UNIT 55 AT TIME STEP110, STRESS PERIOD    2

 HEAD WILL BE SAVED ON UNIT   51 AT END OF TIME STEP  110, STRESS PERIOD    2
 
 SOLVING FOR HEAD 
                                                   Max.-Head-Change                         Max.-Flux-Residual
  Residual-Control   Outer-Iter.   Inner-Iter.     Column Row Layer    Maximum-Head-Change  Column Row Layer    Maximum-Flux-Residual          L2-NORM 
          0                 1           1            36   31     2      -0.8298098806E-03      36   31    2        -0.4464592934E+00      0.9786361568E+00
          0                 2           1            34   32     2      -0.5302678659E-04      39   29    2        -0.8078501891E-02      0.3733811015E-01
          0                 3           1            37   31     2      -0.4088242208E-04      37   31    2        -0.2717730743E-02      0.1641144280E-01
          0                 4           1            39   29     2      -0.1663145894E-04      39   29    2        -0.1577973035E-02      0.1077816798E-01
          0                 5           1            37   31     2      -0.1696341742E-04      37   31    2        -0.1053727511E-02      0.8393544644E-02
          0                 6           1            34   32     2      -0.1028186184E-04      39   29    2        -0.7835579095E-03      0.7000012061E-02
          0                 7           1            37   31     2      -0.9832393152E-05      37   31    2        -0.6610793024E-03      0.5995160273E-02

    ------------------------------------------------
       NWT REQUIRED            7 OUTER ITERATIONS 
       AND A TOTAL OF          7 INNER ITERATIONS.
    ------------------------------------------------

 OUTPUT CONTROL FOR STRESS PERIOD    2   TIME STEP  111
    SAVE HEAD FOR ALL LAYERS
 SOLVING FOR ZETA FOR LAYER     1 ZONE     2

     702 UPPER PART EQS.       721 LOWER PART EQS.    BAND WIDTH + 1 =   41
 STRESS PERIOD=  2 TIMESTEP=111 LAYER=  1 ZONE=  2 ACTIVE CELLS= 1423 NUMBER OF EQUATIONS=    1423
 SOLVING FOR ZETA FOR LAYER     2 ZONE     2

     631 UPPER PART EQS.       642 LOWER PART EQS.    BAND WIDTH + 1 =   35
 STRESS PERIOD=  2 TIMESTEP=111 LAYER=  2 ZONE=  2 ACTIVE CELLS= 1273 NUMBER OF EQUATIONS=    1273
 UBUDSV SAVING "      ZETASRF  1" ON UNIT 55 AT TIME STEP111, STRESS PERIOD    2

 HEAD WILL BE SAVED ON UNIT   51 AT END OF TIME STEP  111, STRESS PERIOD    2
 
 SOLVING FOR HEAD 
                                                   Max.-Head-Change                         Max.-Flux-Residual
  Residual-Control   Outer-Iter.   Inner-Iter.     Column Row Layer    Maximum-Head-Change  Column Row Layer    Maximum-Flux-Residual          L2-NORM 
          0                 1           1            36   31     2      -0.8375814694E-03      36   31    2        -0.4540815353E+00      0.8626391498E+00
          0                 2           1            34   32     2      -0.5440639879E-04      39   29    2        -0.8052516594E-02      0.3536961906E-01
          0                 3           1            37   31     2      -0.4029972732E-04      37   31    2        -0.2697871015E-02      0.1675012782E-01
          0                 4           1            39   29     2      -0.1769167731E-04      39   29    2        -0.1700227799E-02      0.1125514904E-01
          0                 5           1            37   31     2      -0.1738337825E-04      37   31    2        -0.1112427678E-02      0.8804402707E-02
          0                 6           1            34   32     2      -0.1093238579E-04      39   29    2        -0.8394259028E-03      0.7323718821E-02
          0                 7           1            37   31     2      -0.1018069398E-04      37   31    2        -0.7065885891E-03      0.6243186182E-02
          0                 8           1            34   32     2      -0.7953776531E-05      33   31    2        -0.5236098291E-03      0.5468284232E-02

    ------------------------------------------------
       NWT REQUIRED            8 OUTER ITERATIONS 
       AND A TOTAL OF          8 INNER ITERATIONS.
    ------------------------------------------------

 OUTPUT CONTROL FOR STRESS PERIOD    2   TIME STEP  112
    SAVE HEAD FOR ALL LAYERS
 SOLVING FOR ZETA FOR LAYER     1 ZONE     2

     705 UPPER PART EQS.       723 LOWER PART EQS.    BAND WIDTH + 1 =   40
 STRESS PERIOD=  2 TIMESTEP=112 LAYER=  1 ZONE=  2 ACTIVE CELLS= 1428 NUMBER OF EQUATIONS=    1428
 SOLVING FOR ZETA FOR LAYER     2 ZONE     2

     631 UPPER PART EQS.       642 LOWER PART EQS.    BAND WIDTH + 1 =   35
 STRESS PERIOD=  2 TIMESTEP=112 LAYER=  2 ZONE=  2 ACTIVE CELLS= 1273 NUMBER OF EQUATIONS=    1273
 UBUDSV SAVING "      ZETASRF  1" ON UNIT 55 AT TIME STEP112, STRESS PERIOD    2

 HEAD WILL BE SAVED ON UNIT   51 AT END OF TIME STEP  112, STRESS PERIOD    2
 
 SOLVING FOR HEAD 
                                                   Max.-Head-Change                         Max.-Flux-Residual
  Residual-Control   Outer-Iter.   Inner-Iter.     Column Row Layer    Maximum-Head-Change  Column Row Layer    Maximum-Flux-Residual          L2-NORM 
          0                 1           1            36   31     2      -0.8462292518E-03      36   31    2        -0.4621210098E+00      0.7143217137E+00
          0                 2           1            34   32     2      -0.5374231726E-04      39   29    2        -0.7961217117E-02      0.3350747202E-01
          0                 3           1            37   31     2      -0.3663726738E-04      37   31    2        -0.2568164481E-02      0.1532049639E-01
          0                 4           1            39   29     2      -0.1700567134E-04      39   29    2        -0.1600479371E-02      0.1040004604E-01
          0                 5           1            37   31     2      -0.1539527230E-04      37   31    2        -0.1068187611E-02      0.8077649913E-02
          0                 6           1            34   32     2      -0.1037328920E-04      39   29    2        -0.7929049286E-03      0.6688497376E-02
          0                 7           1            37   31     2      -0.9128751494E-05      37   31    2        -0.6797048372E-03      0.5680854871E-02

    ------------------------------------------------
       NWT REQUIRED            7 OUTER ITERATIONS 
       AND A TOTAL OF          7 INNER ITERATIONS.
    ------------------------------------------------

 OUTPUT CONTROL FOR STRESS PERIOD    2   TIME STEP  113
    SAVE HEAD FOR ALL LAYERS
 SOLVING FOR ZETA FOR LAYER     1 ZONE     2

     711 UPPER PART EQS.       717 LOWER PART EQS.    BAND WIDTH + 1 =   28
 STRESS PERIOD=  2 TIMESTEP=113 LAYER=  1 ZONE=  2 ACTIVE CELLS= 1428 NUMBER OF EQUATIONS=    1428
 SOLVING FOR ZETA FOR LAYER     2 ZONE     2

     631 UPPER PART EQS.       642 LOWER PART EQS.    BAND WIDTH + 1 =   35
 STRESS PERIOD=  2 TIMESTEP=113 LAYER=  2 ZONE=  2 ACTIVE CELLS= 1273 NUMBER OF EQUATIONS=    1273
 UBUDSV SAVING "      ZETASRF  1" ON UNIT 55 AT TIME STEP113, STRESS PERIOD    2

 HEAD WILL BE SAVED ON UNIT   51 AT END OF TIME STEP  113, STRESS PERIOD    2
 
 SOLVING FOR HEAD 
                                                   Max.-Head-Change                         Max.-Flux-Residual
  Residual-Control   Outer-Iter.   Inner-Iter.     Column Row Layer    Maximum-Head-Change  Column Row Layer    Maximum-Flux-Residual          L2-NORM 
          0                 1           1            36   31     2      -0.8548718427E-03      36   31    2        -0.4702529907E+00      0.7187076706E+00
          0                 2           1            38   30     2      -0.5898541770E-04      39   29    2        -0.8058879195E-02      0.3779550600E-01
          0                 3           1            37   31     2      -0.3907996370E-04      37   31    2        -0.2716937095E-02      0.1902087848E-01
          0                 4           1            39   29     2      -0.2287827655E-04      39   29    2        -0.2018795940E-02      0.1357862702E-01
          0                 5           1            37   31     2      -0.1979788741E-04      37   31    2        -0.1314777457E-02      0.1096225674E-01
          0                 6           1            34   32     2      -0.1411182638E-04      39   29    2        -0.1067184136E-02      0.9309749455E-02
          0                 7           1            37   31     2      -0.1276813913E-04      37   31    2        -0.8779732271E-03      0.8085390782E-02
          0                 8           1            34   32     2      -0.1008804054E-04      39   29    2        -0.6958802845E-03      0.7151245835E-02
          0                 9           1            37   31     2      -0.9129040966E-05      37   31    2        -0.6494362941E-03      0.6363072940E-02

    ------------------------------------------------
       NWT REQUIRED            9 OUTER ITERATIONS 
       AND A TOTAL OF          9 INNER ITERATIONS.
    ------------------------------------------------

 OUTPUT CONTROL FOR STRESS PERIOD    2   TIME STEP  114
    SAVE HEAD FOR ALL LAYERS
 SOLVING FOR ZETA FOR LAYER     1 ZONE     2

     705 UPPER PART EQS.       707 LOWER PART EQS.    BAND WIDTH + 1 =   30
 STRESS PERIOD=  2 TIMESTEP=114 LAYER=  1 ZONE=  2 ACTIVE CELLS= 1412 NUMBER OF EQUATIONS=    1412
 SOLVING FOR ZETA FOR LAYER     2 ZONE     2

     631 UPPER PART EQS.       642 LOWER PART EQS.    BAND WIDTH + 1 =   35
 STRESS PERIOD=  2 TIMESTEP=114 LAYER=  2 ZONE=  2 ACTIVE CELLS= 1273 NUMBER OF EQUATIONS=    1273
 UBUDSV SAVING "      ZETASRF  1" ON UNIT 55 AT TIME STEP114, STRESS PERIOD    2

 HEAD WILL BE SAVED ON UNIT   51 AT END OF TIME STEP  114, STRESS PERIOD    2
 
 SOLVING FOR HEAD 
                                                   Max.-Head-Change                         Max.-Flux-Residual
  Residual-Control   Outer-Iter.   Inner-Iter.     Column Row Layer    Maximum-Head-Change  Column Row Layer    Maximum-Flux-Residual          L2-NORM 
          0                 1           1            36   31     2      -0.8643013936E-03      36   31    2        -0.4787864685E+00      0.1199210749E+01
          0                 2           1            34   32     2      -0.5186704866E-04      39   29    2        -0.7948813228E-02      0.3820455550E-01
          0                 3           1            37   31     2      -0.3929288426E-04      37   31    2        -0.2660562133E-02      0.1686646863E-01
          0                 4           1            39   29     2      -0.1756225045E-04      39   29    2        -0.1505058454E-02      0.1171008346E-01
          0                 5           1            37   31     2      -0.1751133782E-04      37   31    2        -0.1075660332E-02      0.9581631233E-02
          0                 6           1            34   32     2      -0.1195295168E-04      33   31    2        -0.8011370545E-03      0.8293371359E-02
          0                 7           1            37   31     2      -0.1080749903E-04      37   31    2        -0.7201255900E-03      0.7290068277E-02
          0                 8           1            34   32     2      -0.9089289577E-05      33   31    2        -0.5649844151E-03      0.6525661220E-02

    ------------------------------------------------
       NWT REQUIRED            8 OUTER ITERATIONS 
       AND A TOTAL OF          8 INNER ITERATIONS.
    ------------------------------------------------

 OUTPUT CONTROL FOR STRESS PERIOD    2   TIME STEP  115
    SAVE HEAD FOR ALL LAYERS
 SOLVING FOR ZETA FOR LAYER     1 ZONE     2

     704 UPPER PART EQS.       717 LOWER PART EQS.    BAND WIDTH + 1 =   34
 STRESS PERIOD=  2 TIMESTEP=115 LAYER=  1 ZONE=  2 ACTIVE CELLS= 1421 NUMBER OF EQUATIONS=    1421
 SOLVING FOR ZETA FOR LAYER     2 ZONE     2

     631 UPPER PART EQS.       642 LOWER PART EQS.    BAND WIDTH + 1 =   35
 STRESS PERIOD=  2 TIMESTEP=115 LAYER=  2 ZONE=  2 ACTIVE CELLS= 1273 NUMBER OF EQUATIONS=    1273
 UBUDSV SAVING "      ZETASRF  1" ON UNIT 55 AT TIME STEP115, STRESS PERIOD    2

 HEAD WILL BE SAVED ON UNIT   51 AT END OF TIME STEP  115, STRESS PERIOD    2
 
 SOLVING FOR HEAD 
                                                   Max.-Head-Change                         Max.-Flux-Residual
  Residual-Control   Outer-Iter.   Inner-Iter.     Column Row Layer    Maximum-Head-Change  Column Row Layer    Maximum-Flux-Residual          L2-NORM 
          0                 1           1            36   31     2      -0.8746284838E-03      36   31    2        -0.4876899719E+00      0.9903569306E+00
          0                 2           1            34   32     2      -0.5243189164E-04      39   29    2        -0.7979908341E-02      0.4084846260E-01
          0                 3           1            37   31     2      -0.4477691647E-04      37   31    2        -0.2727824043E-02      0.1873531977E-01
          0                 4           1            39   29     2      -0.1791100218E-04      39   29    2        -0.1697002807E-02      0.1252347566E-01
          0                 5           1            37   31     2      -0.1919281187E-04      37   31    2        -0.1105308734E-02      0.9621756353E-02
          0                 6           1            39   29     2      -0.1037869551E-04      39   29    2        -0.8626966833E-03      0.7907717252E-02
          0                 7           1            37   31     2      -0.1132161275E-04      37   31    2        -0.6649936220E-03      0.6571262531E-02
          0                 8           1            38   33     1      -0.7090501798E-05      39   29    2        -0.5304145923E-03      0.5708772333E-02

    ------------------------------------------------
       NWT REQUIRED            8 OUTER ITERATIONS 
       AND A TOTAL OF          8 INNER ITERATIONS.
    ------------------------------------------------

 OUTPUT CONTROL FOR STRESS PERIOD    2   TIME STEP  116
    SAVE HEAD FOR ALL LAYERS
 SOLVING FOR ZETA FOR LAYER     1 ZONE     2

     709 UPPER PART EQS.       723 LOWER PART EQS.    BAND WIDTH + 1 =   35
 STRESS PERIOD=  2 TIMESTEP=116 LAYER=  1 ZONE=  2 ACTIVE CELLS= 1432 NUMBER OF EQUATIONS=    1432
 SOLVING FOR ZETA FOR LAYER     2 ZONE     2

     631 UPPER PART EQS.       642 LOWER PART EQS.    BAND WIDTH + 1 =   35
 STRESS PERIOD=  2 TIMESTEP=116 LAYER=  2 ZONE=  2 ACTIVE CELLS= 1273 NUMBER OF EQUATIONS=    1273
 UBUDSV SAVING "      ZETASRF  1" ON UNIT 55 AT TIME STEP116, STRESS PERIOD    2

 HEAD WILL BE SAVED ON UNIT   51 AT END OF TIME STEP  116, STRESS PERIOD    2
 
 SOLVING FOR HEAD 
                                                   Max.-Head-Change                         Max.-Flux-Residual
  Residual-Control   Outer-Iter.   Inner-Iter.     Column Row Layer    Maximum-Head-Change  Column Row Layer    Maximum-Flux-Residual          L2-NORM 
          0                 1           1            36   31     2      -0.8840026603E-03      36   31    2        -0.4968047142E+00      0.8533510711E+00
          0                 2           1            34   32     2      -0.5122402139E-04      39   29    2        -0.7845428186E-02      0.3589343592E-01
          0                 3           1            37   31     2      -0.3516230886E-04      37   31    2        -0.2519778598E-02      0.1501674615E-01
          0                 4           1            34   32     2      -0.1607733279E-04      39   29    2        -0.1386783251E-02      0.9959909540E-02
          0                 5           1            37   31     2      -0.1472684262E-04      37   31    2        -0.9715965116E-03      0.7901347196E-02
          0                 6           1            34   32     2      -0.1028798417E-04      39   29    2        -0.6983452790E-03      0.6709525711E-02
          0                 7           1            37   31     2      -0.8901732468E-05      37   31    2        -0.6261541190E-03      0.5844150298E-02

    ------------------------------------------------
       NWT REQUIRED            7 OUTER ITERATIONS 
       AND A TOTAL OF          7 INNER ITERATIONS.
    ------------------------------------------------

 OUTPUT CONTROL FOR STRESS PERIOD    2   TIME STEP  117
    SAVE HEAD FOR ALL LAYERS
 SOLVING FOR ZETA FOR LAYER     1 ZONE     2

     709 UPPER PART EQS.       719 LOWER PART EQS.    BAND WIDTH + 1 =   31
 STRESS PERIOD=  2 TIMESTEP=117 LAYER=  1 ZONE=  2 ACTIVE CELLS= 1428 NUMBER OF EQUATIONS=    1428
 SOLVING FOR ZETA FOR LAYER     2 ZONE     2

     631 UPPER PART EQS.       642 LOWER PART EQS.    BAND WIDTH + 1 =   35
 STRESS PERIOD=  2 TIMESTEP=117 LAYER=  2 ZONE=  2 ACTIVE CELLS= 1273 NUMBER OF EQUATIONS=    1273
 UBUDSV SAVING "      ZETASRF  1" ON UNIT 55 AT TIME STEP117, STRESS PERIOD    2

 HEAD WILL BE SAVED ON UNIT   51 AT END OF TIME STEP  117, STRESS PERIOD    2
 
 SOLVING FOR HEAD 
                                                   Max.-Head-Change                         Max.-Flux-Residual
  Residual-Control   Outer-Iter.   Inner-Iter.     Column Row Layer    Maximum-Head-Change  Column Row Layer    Maximum-Flux-Residual          L2-NORM 
          0                 1           1            36   31     2      -0.8946928380E-03      36   31    2        -0.5062046051E+00      0.1042835909E+01
          0                 2           1            38   30     2      -0.5426311930E-04      39   29    2        -0.7955512768E-02      0.3875662061E-01
          0                 3           1            37   31     2      -0.4404645055E-04      37   31    2        -0.2760857800E-02      0.1898216577E-01
          0                 4           1            39   29     2      -0.1988652484E-04      39   29    2        -0.1867003036E-02      0.1316293891E-01
          0                 5           1            37   31     2      -0.2029486275E-04      37   31    2        -0.1208042130E-02      0.1032373422E-01
          0                 6           1            34   32     2      -0.1187448925E-04      39   29    2        -0.9924404930E-03      0.8571085953E-02
          0                 7           1            37   31     2      -0.1238133556E-04      37   31    2        -0.7693893143E-03      0.7254428839E-02
          0                 8           1            34   32     2      -0.8485612420E-05      39   29    2        -0.6280800071E-03      0.6334472196E-02

    ------------------------------------------------
       NWT REQUIRED            8 OUTER ITERATIONS 
       AND A TOTAL OF          8 INNER ITERATIONS.
    ------------------------------------------------

 OUTPUT CONTROL FOR STRESS PERIOD    2   TIME STEP  118
    SAVE HEAD FOR ALL LAYERS
 SOLVING FOR ZETA FOR LAYER     1 ZONE     2

     711 UPPER PART EQS.       719 LOWER PART EQS.    BAND WIDTH + 1 =   32
 STRESS PERIOD=  2 TIMESTEP=118 LAYER=  1 ZONE=  2 ACTIVE CELLS= 1430 NUMBER OF EQUATIONS=    1430
 SOLVING FOR ZETA FOR LAYER     2 ZONE     2

     633 UPPER PART EQS.       642 LOWER PART EQS.    BAND WIDTH + 1 =   35
 STRESS PERIOD=  2 TIMESTEP=118 LAYER=  2 ZONE=  2 ACTIVE CELLS= 1275 NUMBER OF EQUATIONS=    1275
 UBUDSV SAVING "      ZETASRF  1" ON UNIT 55 AT TIME STEP118, STRESS PERIOD    2

 HEAD WILL BE SAVED ON UNIT   51 AT END OF TIME STEP  118, STRESS PERIOD    2
 
 SOLVING FOR HEAD 
                                                   Max.-Head-Change                         Max.-Flux-Residual
  Residual-Control   Outer-Iter.   Inner-Iter.     Column Row Layer    Maximum-Head-Change  Column Row Layer    Maximum-Flux-Residual          L2-NORM 
          0                 1           1            36   31     2      -0.9063634794E-03      36   31    2        -0.5160555840E+00      0.8236438206E+00
          0                 2           1            34   32     2      -0.5341266666E-04      39   29    2        -0.7878703239E-02      0.3564766634E-01
          0                 3           1            37   31     2      -0.3528210546E-04      37   31    2        -0.2601546696E-02      0.1606101959E-01
          0                 4           1            34   32     2      -0.1801986062E-04      39   29    2        -0.1567132207E-02      0.1095470922E-01
          0                 5           1            37   31     2      -0.1594066757E-04      37   31    2        -0.1078662765E-02      0.8859710094E-02
          0                 6           1            34   32     2      -0.1185934356E-04      33   31    2        -0.7823239348E-03      0.7610043009E-02
          0                 7           1            37   31     2      -0.9774238564E-05      37   31    2        -0.7147125733E-03      0.6705848256E-02

    ------------------------------------------------
       NWT REQUIRED            7 OUTER ITERATIONS 
       AND A TOTAL OF          7 INNER ITERATIONS.
    ------------------------------------------------

 OUTPUT CONTROL FOR STRESS PERIOD    2   TIME STEP  119
    SAVE HEAD FOR ALL LAYERS
 SOLVING FOR ZETA FOR LAYER     1 ZONE     2

     700 UPPER PART EQS.       717 LOWER PART EQS.    BAND WIDTH + 1 =   38
 STRESS PERIOD=  2 TIMESTEP=119 LAYER=  1 ZONE=  2 ACTIVE CELLS= 1417 NUMBER OF EQUATIONS=    1417
 SOLVING FOR ZETA FOR LAYER     2 ZONE     2

     633 UPPER PART EQS.       642 LOWER PART EQS.    BAND WIDTH + 1 =   35
 STRESS PERIOD=  2 TIMESTEP=119 LAYER=  2 ZONE=  2 ACTIVE CELLS= 1275 NUMBER OF EQUATIONS=    1275
 UBUDSV SAVING "      ZETASRF  1" ON UNIT 55 AT TIME STEP119, STRESS PERIOD    2

 HEAD WILL BE SAVED ON UNIT   51 AT END OF TIME STEP  119, STRESS PERIOD    2
 
 SOLVING FOR HEAD 
                                                   Max.-Head-Change                         Max.-Flux-Residual
  Residual-Control   Outer-Iter.   Inner-Iter.     Column Row Layer    Maximum-Head-Change  Column Row Layer    Maximum-Flux-Residual          L2-NORM 
          0                 1           1            36   31     2      -0.9164402854E-03      36   31    2        -0.5262150764E+00      0.9391348933E+00
          0                 2           1            34   32     2      -0.5378687163E-04      39   29    2        -0.7855804663E-02      0.3692588971E-01
          0                 3           1            37   31     2      -0.4128580459E-04      37   31    2        -0.2617306719E-02      0.1808260116E-01
          0                 4           1            39   29     2      -0.1928349435E-04      39   29    2        -0.1768722535E-02      0.1267195931E-01
          0                 5           1            37   31     2      -0.1972070085E-04      37   31    2        -0.1163960896E-02      0.1013905150E-01
          0                 6           1            34   32     2      -0.1200556838E-04      39   29    2        -0.9350777144E-03      0.8597486478E-02
          0                 7           1            37   31     2      -0.1221615641E-04      37   31    2        -0.7610038070E-03      0.7404621669E-02
          0                 8           1            34   32     2      -0.8756462526E-05      33   31    2        -0.6055113848E-03      0.6567245703E-02

    ------------------------------------------------
       NWT REQUIRED            8 OUTER ITERATIONS 
       AND A TOTAL OF          8 INNER ITERATIONS.
    ------------------------------------------------

 OUTPUT CONTROL FOR STRESS PERIOD    2   TIME STEP  120
    PRINT BUDGET
    SAVE HEAD FOR ALL LAYERS
 SOLVING FOR ZETA FOR LAYER     1 ZONE     2

     711 UPPER PART EQS.       713 LOWER PART EQS.    BAND WIDTH + 1 =   28
 STRESS PERIOD=  2 TIMESTEP=120 LAYER=  1 ZONE=  2 ACTIVE CELLS= 1424 NUMBER OF EQUATIONS=    1424
 SOLVING FOR ZETA FOR LAYER     2 ZONE     2

     633 UPPER PART EQS.       642 LOWER PART EQS.    BAND WIDTH + 1 =   35
 STRESS PERIOD=  2 TIMESTEP=120 LAYER=  2 ZONE=  2 ACTIVE CELLS= 1275 NUMBER OF EQUATIONS=    1275
 UBUDSV SAVING "      ZETASRF  1" ON UNIT 55 AT TIME STEP120, STRESS PERIOD    2


                      VOLUMETRIC SWI ZONE BUDGET FOR ENTIRE MODEL
                     AT END OF TIME STEP  120 IN STRESS PERIOD   2
                                      ZONE     1
  -----------------------------------------------------------------------------------

        CUMULATIVE VOLUMES      L**3       RATES FOR THIS TIME STEP      L**3/T
        ------------------                 ------------------------

              IN:                                      IN:
              ---                                      ---
             BOUNDARIES =   130070536.0000            BOUNDARIES =        1680.0000
          CONSTANT HEAD =           0.0000         CONSTANT HEAD =           0.0000
            ZONE CHANGE =     1029421.5625           ZONE CHANGE =         117.3825
       ZONE CHG TIP/TOE =      418566.0625      ZONE CHG TIP/TOE =           3.3189
            ZONE MIXING =           0.0000           ZONE MIXING =           0.0000

               TOTAL IN =   131518528.0000              TOTAL IN =        1800.7014

             OUT:                                     OUT:
             ----                                     ----
             BOUNDARIES =   112913512.0000            BOUNDARIES =        1792.5559
          CONSTANT HEAD =           0.0000         CONSTANT HEAD =           0.0000
            ZONE CHANGE =    18907034.0000           ZONE CHANGE =           4.9905
       ZONE CHG TIP/TOE =      430066.5625      ZONE CHG TIP/TOE =           4.3464
            ZONE MIXING =           0.0000           ZONE MIXING =           0.0000

              TOTAL OUT =   132250608.0000             TOTAL OUT =        1801.8928

               IN - OUT =     -732080.0000              IN - OUT =          -1.1914

    PERCENT DISCREPANCY =          -0.56     PERCENT DISCREPANCY =          -0.07



                      VOLUMETRIC SWI ZONE BUDGET FOR ENTIRE MODEL
                     AT END OF TIME STEP  120 IN STRESS PERIOD   2
                                      ZONE     2
  -----------------------------------------------------------------------------------

        CUMULATIVE VOLUMES      L**3       RATES FOR THIS TIME STEP      L**3/T
        ------------------                 ------------------------

              IN:                                      IN:
              ---                                      ---
             BOUNDARIES =      505376.9375            BOUNDARIES =         112.3595
          CONSTANT HEAD =           0.0000         CONSTANT HEAD =           0.0000
            ZONE CHANGE =    18865298.0000           ZONE CHANGE =           4.7753
       ZONE CHG TIP/TOE =     1168363.1250      ZONE CHG TIP/TOE =           4.3464
            ZONE MIXING =           0.0000           ZONE MIXING =           0.0000

               TOTAL IN =    20539038.0000              TOTAL IN =         121.4812

             OUT:                                     OUT:
             ----                                     ----
             BOUNDARIES =    17654070.0000            BOUNDARIES =           0.0000
          CONSTANT HEAD =           0.0000         CONSTANT HEAD =           0.0000
            ZONE CHANGE =     1767716.2500           ZONE CHANGE =         117.3825
       ZONE CHG TIP/TOE =      376836.9375      ZONE CHG TIP/TOE =           3.1038
            ZONE MIXING =           0.0000           ZONE MIXING =           0.0000

              TOTAL OUT =    19798622.0000             TOTAL OUT =         120.4862

               IN - OUT =      740416.0000              IN - OUT =           0.9950

    PERCENT DISCREPANCY =           3.67     PERCENT DISCREPANCY =           0.82


 HEAD WILL BE SAVED ON UNIT   51 AT END OF TIME STEP  120, STRESS PERIOD    2
1
  VOLUMETRIC BUDGET FOR ENTIRE MODEL AT END OF TIME STEP  120, STRESS PERIOD   2
  ------------------------------------------------------------------------------

     CUMULATIVE VOLUMES      L**3       RATES FOR THIS TIME STEP      L**3/T
     ------------------                 ------------------------

           IN:                                      IN:
           ---                                      ---
             STORAGE =           0.0000               STORAGE =           0.0000
       CONSTANT HEAD =           0.0000         CONSTANT HEAD =           0.0000
               WELLS =   130075336.0000                 WELLS =        1681.0000
     HEAD DEP BOUNDS =      505376.9375       HEAD DEP BOUNDS =         112.3595
          SWIADDTOCH =           0.0000            SWIADDTOCH =           0.0000

            TOTAL IN =   130580712.0000              TOTAL IN =        1793.3595

          OUT:                                     OUT:
          ----                                     ----
             STORAGE =           0.0000               STORAGE =           0.0000
       CONSTANT HEAD =           0.0000         CONSTANT HEAD =           0.0000
               WELLS =     1095000.0000                 WELLS =         250.0000
     HEAD DEP BOUNDS =   129476904.0000       HEAD DEP BOUNDS =        1543.5559
          SWIADDTOCH =           0.0000            SWIADDTOCH =           0.0000

           TOTAL OUT =   130571904.0000             TOTAL OUT =        1793.5559

            IN - OUT =        8808.0000              IN - OUT =          -0.1964

 PERCENT DISCREPANCY =           0.01     PERCENT DISCREPANCY =          -0.01






         TIME SUMMARY AT END OF TIME STEP  120 IN STRESS PERIOD    2
                    SECONDS     MINUTES      HOURS       DAYS        YEARS
                    -----------------------------------------------------------
   TIME STEP LENGTH 3.15360E+06  52560.      876.00      36.500     9.99316E-02
 STRESS PERIOD TIME 3.78432E+08 6.30720E+06 1.05120E+05  4380.0      11.992    
         TOTAL TIME 6.68563E+09 1.11427E+08 1.85712E+06  77380.      211.85    
1
1
                            STRESS PERIOD NO.    3, LENGTH =   6570.000    
                            -----------------------------------------------

                              NUMBER OF TIME STEPS =   180

                               MULTIPLIER FOR DELT =     1.000

                            INITIAL TIME STEP SIZE =   36.50000    

   1683 WELLS

 REUSING NON-PARAMETER GHB CELLS FROM LAST STRESS PERIOD

   2040 GHB CELLS
 
 SOLVING FOR HEAD 
                                                   Max.-Head-Change                         Max.-Flux-Residual
  Residual-Control   Outer-Iter.   Inner-Iter.     Column Row Layer    Maximum-Head-Change  Column Row Layer    Maximum-Flux-Residual          L2-NORM 
          0                 1           6            36   31     2      -0.6846867414E-01      36   31    2        -0.2553682709E+02      0.2554772831E+02
          0                 2           1            25   38     1      -0.4358073168E-03      38   30    2        -0.3957487681E-01      0.4239129635E+00
          0                 3           1            29   36     1      -0.4059570031E-03      34   34    2        -0.2965364051E-01      0.3730346658E+00
          0                 4           1            30   34     2      -0.4031891983E-03      38   30    2        -0.2847763228E-01      0.3341397699E+00
          0                 5           1            29   36     1      -0.3397896963E-03      34   34    2        -0.2586049910E-01      0.3009263206E+00
          0                 6           1            30   34     2      -0.3493415588E-03      30   34    2        -0.2249782758E-01      0.2721069748E+00
          0                 7           1            33   31     2      -0.2823096680E-03      34   34    2        -0.2140091600E-01      0.2461676530E+00
          0                 8           1            30   34     2      -0.2928376494E-03      30   34    2        -0.1847169699E-01      0.2230141867E+00
          0                 9           1            33   31     2      -0.2368327178E-03      34   34    2        -0.1731648116E-01      0.2019871293E+00
          0                10           1            30   34     2      -0.2421119768E-03      30   34    2        -0.1508646470E-01      0.1830710162E+00
                                                   Max.-Head-Change                         Max.-Flux-Residual
  Residual-Control   Outer-Iter.   Inner-Iter.     Column Row Layer    Maximum-Head-Change  Column Row Layer    Maximum-Flux-Residual          L2-NORM 
          0                11           1            33   31     2      -0.1958414505E-03      34   34    2        -0.1388175850E-01      0.1658775788E+00
          0                12           1            30   34     2      -0.1989268721E-03      30   34    2        -0.1229053840E-01      0.1503632752E+00
          0                13           1            33   31     2      -0.1609560579E-03      34   34    2        -0.1108442009E-01      0.1362686693E+00
          0                14           1            30   34     2      -0.1629423744E-03      30   34    2        -0.9997981926E-02      0.1235306191E+00
          0                15           1            33   31     2      -0.1319038533E-03      35   33    2        -0.9073571270E-02      0.1119646532E+00
          0                16           1            30   34     2      -0.1332429263E-03      30   34    2        -0.8123383333E-02      0.1015019859E+00
          0                17           1            33   31     2      -0.1079282808E-03      35   33    2        -0.7481312457E-02      0.9200606884E-01
          0                18           1            30   34     2      -0.1088428571E-03      30   34    2        -0.6592352841E-02      0.8341074086E-01
          0                19           1            33   31     2      -0.8822459750E-04      35   33    2        -0.6153867680E-02      0.7561189943E-01
          0                20           1            31   33     2      -0.8896265780E-04      30   34    2        -0.5342922541E-02      0.6854981565E-01
                                                   Max.-Head-Change                         Max.-Flux-Residual
  Residual-Control   Outer-Iter.   Inner-Iter.     Column Row Layer    Maximum-Head-Change  Column Row Layer    Maximum-Flux-Residual          L2-NORM 
          0                21           1            33   31     2      -0.7206665816E-04      35   33    2        -0.5051298648E-02      0.6214337148E-01
          0                22           1            31   33     2      -0.7334388307E-04      30   34    2        -0.4324195699E-02      0.5634051557E-01
          0                23           1            33   31     2      -0.5883388493E-04      35   33    2        -0.4138035844E-02      0.5107704429E-01
          0                24           1            31   33     2      -0.6042365544E-04      30   34    2        -0.3494482233E-02      0.4630852286E-01
          0                25           1            33   31     2      -0.4800703789E-04      35   33    2        -0.3383364164E-02      0.4198358603E-01
          0                26           1            31   33     2      -0.4974520022E-04      32   36    2        -0.2838454891E-02      0.3806476430E-01
          0                27           1            33   31     2      -0.3915557257E-04      35   33    2        -0.2761114105E-02      0.3451066996E-01
          0                28           1            31   33     2      -0.4092644942E-04      31   33    2        -0.2330846508E-02      0.3128993763E-01
          0                29           1            35   33     2      -0.3196752168E-04      35   33    2        -0.2249138602E-02      0.2836906680E-01
          0                30           1            31   33     2      -0.3364889447E-04      31   33    2        -0.1928144071E-02      0.2572191491E-01
                                                   Max.-Head-Change                         Max.-Flux-Residual
  Residual-Control   Outer-Iter.   Inner-Iter.     Column Row Layer    Maximum-Head-Change  Column Row Layer    Maximum-Flux-Residual          L2-NORM 
          0                31           1            35   33     2      -0.2610067974E-04      35   33    2        -0.1828771343E-02      0.2332128899E-01
          0                32           1            31   33     2      -0.2764750939E-04      31   33    2        -0.1591972519E-02      0.2114545380E-01
          0                33           1            35   33     2      -0.2130013471E-04      35   33    2        -0.1484327979E-02      0.1917229890E-01
          0                34           1            31   33     2      -0.2270203385E-04      31   33    2        -0.1311980584E-02      0.1738377858E-01
          0                35           1            28   36     2      -0.1738284602E-04      35   33    2        -0.1202665247E-02      0.1576189706E-01
          0                36           1            31   33     2      -0.1862957557E-04      31   33    2        -0.1079289621E-02      0.1429168352E-01
          0                37           1            34   30     2      -0.1425182814E-04      28   36    2        -0.9770075029E-03      0.1295848247E-01
          0                38           1            31   33     2      -0.1527838773E-04      31   33    2        -0.8863157674E-03      0.1174987955E-01
          0                39           1            34   30     2      -0.1170097348E-04      28   36    2        -0.7993330025E-03      0.1065393506E-01
          0                40           1            31   33     2      -0.1252265696E-04      31   33    2        -0.7266052620E-03      0.9660357663E-02
          0                41           1            27   33     2      -0.9612417770E-05      28   36    2        -0.6525952247E-03      0.8759417341E-02

    ------------------------------------------------
       NWT REQUIRED           41 OUTER ITERATIONS 
       AND A TOTAL OF         46 INNER ITERATIONS.
    ------------------------------------------------

 OUTPUT CONTROL FOR STRESS PERIOD    3   TIME STEP    1
    PRINT BUDGET
    SAVE HEAD FOR ALL LAYERS
 SOLVING FOR ZETA FOR LAYER     1 ZONE     2

     709 UPPER PART EQS.       723 LOWER PART EQS.    BAND WIDTH + 1 =   35
 STRESS PERIOD=  3 TIMESTEP=  1 LAYER=  1 ZONE=  2 ACTIVE CELLS= 1432 NUMBER OF EQUATIONS=    1432
 SOLVING FOR ZETA FOR LAYER     2 ZONE     2

     633 UPPER PART EQS.       642 LOWER PART EQS.    BAND WIDTH + 1 =   35
 STRESS PERIOD=  3 TIMESTEP=  1 LAYER=  2 ZONE=  2 ACTIVE CELLS= 1275 NUMBER OF EQUATIONS=    1275
 UBUDSV SAVING "      ZETASRF  1" ON UNIT 55 AT TIME STEP  1, STRESS PERIOD    3


                      VOLUMETRIC SWI ZONE BUDGET FOR ENTIRE MODEL
                     AT END OF TIME STEP    1 IN STRESS PERIOD   3
                                      ZONE     1
  -----------------------------------------------------------------------------------

        CUMULATIVE VOLUMES      L**3       RATES FOR THIS TIME STEP      L**3/T
        ------------------                 ------------------------

              IN:                                      IN:
              ---                                      ---
             BOUNDARIES =   130131856.0000            BOUNDARIES =        1680.0000
          CONSTANT HEAD =           0.0000         CONSTANT HEAD =           0.0000
            ZONE CHANGE =     1033458.7500           ZONE CHANGE =         110.6073
       ZONE CHG TIP/TOE =      418639.1875      ZONE CHG TIP/TOE =           2.0032
            ZONE MIXING =           0.0000           ZONE MIXING =           0.0000

               TOTAL IN =   131583952.0000              TOTAL IN =        1792.6106

             OUT:                                     OUT:
             ----                                     ----
             BOUNDARIES =   112978296.0000            BOUNDARIES =        1774.9320
          CONSTANT HEAD =           0.0000         CONSTANT HEAD =           0.0000
            ZONE CHANGE =    18907616.0000           ZONE CHANGE =          15.9344
       ZONE CHG TIP/TOE =      430135.6250      ZONE CHG TIP/TOE =           1.8925
            ZONE MIXING =           0.0000           ZONE MIXING =           0.0000

              TOTAL OUT =   132316048.0000             TOTAL OUT =        1792.7589

               IN - OUT =     -732096.0000              IN - OUT =          -0.1483

    PERCENT DISCREPANCY =          -0.55     PERCENT DISCREPANCY =          -0.01



                      VOLUMETRIC SWI ZONE BUDGET FOR ENTIRE MODEL
                     AT END OF TIME STEP    1 IN STRESS PERIOD   3
                                      ZONE     2
  -----------------------------------------------------------------------------------

        CUMULATIVE VOLUMES      L**3       RATES FOR THIS TIME STEP      L**3/T
        ------------------                 ------------------------

              IN:                                      IN:
              ---                                      ---
             BOUNDARIES =      509743.2812            BOUNDARIES =         119.6262
          CONSTANT HEAD =           0.0000         CONSTANT HEAD =           0.0000
            ZONE CHANGE =    18865870.0000           ZONE CHANGE =          15.6743
       ZONE CHG TIP/TOE =     1168432.2500      ZONE CHG TIP/TOE =           1.8925
            ZONE MIXING =           0.0000           ZONE MIXING =           0.0000

               TOTAL IN =    20544046.0000              TOTAL IN =         137.1930

             OUT:                                     OUT:
             ----                                     ----
             BOUNDARIES =    17654982.0000            BOUNDARIES =          25.0000
          CONSTANT HEAD =           0.0000         CONSTANT HEAD =           0.0000
            ZONE CHANGE =     1771753.3750           ZONE CHANGE =         110.6073
       ZONE CHG TIP/TOE =      376900.5625      ZONE CHG TIP/TOE =           1.7431
            ZONE MIXING =           0.0000           ZONE MIXING =           0.0000

              TOTAL OUT =    19803636.0000             TOTAL OUT =         137.3503

               IN - OUT =      740410.0000              IN - OUT =          -0.1574

    PERCENT DISCREPANCY =           3.67     PERCENT DISCREPANCY =          -0.11


 HEAD WILL BE SAVED ON UNIT   51 AT END OF TIME STEP    1, STRESS PERIOD    3
1
  VOLUMETRIC BUDGET FOR ENTIRE MODEL AT END OF TIME STEP    1, STRESS PERIOD   3
  ------------------------------------------------------------------------------

     CUMULATIVE VOLUMES      L**3       RATES FOR THIS TIME STEP      L**3/T
     ------------------                 ------------------------

           IN:                                      IN:
           ---                                      ---
             STORAGE =           0.0000               STORAGE =           0.0000
       CONSTANT HEAD =           0.0000         CONSTANT HEAD =           0.0000
               WELLS =   130136696.0000                 WELLS =        1681.0000
     HEAD DEP BOUNDS =      509743.2812       HEAD DEP BOUNDS =         119.6262
          SWIADDTOCH =           0.0000            SWIADDTOCH =           0.0000

            TOTAL IN =   130646440.0000              TOTAL IN =        1800.6262

          OUT:                                     OUT:
          ----                                     ----
             STORAGE =           0.0000               STORAGE =           0.0000
       CONSTANT HEAD =           0.0000         CONSTANT HEAD =           0.0000
               WELLS =     1105037.5000                 WELLS =         275.0000
     HEAD DEP BOUNDS =   129532600.0000       HEAD DEP BOUNDS =        1525.9320
          SWIADDTOCH =           0.0000            SWIADDTOCH =           0.0000

           TOTAL OUT =   130637640.0000             TOTAL OUT =        1800.9320

            IN - OUT =        8800.0000              IN - OUT =          -0.3058

 PERCENT DISCREPANCY =           0.01     PERCENT DISCREPANCY =          -0.02






         TIME SUMMARY AT END OF TIME STEP    1 IN STRESS PERIOD    3
                    SECONDS     MINUTES      HOURS       DAYS        YEARS
                    -----------------------------------------------------------
   TIME STEP LENGTH 3.15360E+06  52560.      876.00      36.500     9.99316E-02
 STRESS PERIOD TIME 3.15360E+06  52560.      876.00      36.500     9.99316E-02
         TOTAL TIME 6.68879E+09 1.11480E+08 1.85800E+06  77416.      211.95    
1
 
 SOLVING FOR HEAD 
                                                   Max.-Head-Change                         Max.-Flux-Residual
  Residual-Control   Outer-Iter.   Inner-Iter.     Column Row Layer    Maximum-Head-Change  Column Row Layer    Maximum-Flux-Residual          L2-NORM 
          0                 1           1            36   31     2       0.3027484690E-02      36   31    2         0.1891731262E+01      0.2105406143E+01
          0                 2           1            33   33     2       0.4539505465E-04      33   33    2         0.1599924838E-01      0.5670403682E-01
          0                 3           1            42   34     2      -0.3101690188E-04      42   34    2        -0.1756655890E-02      0.1990738988E-01
          0                 4           1            37   31     2      -0.2293408094E-04      37   31    2        -0.1719191087E-02      0.1551152364E-01
          0                 5           1            40   30     2      -0.1630848515E-04      38   33    1        -0.1171781620E-02      0.1382102006E-01
          0                 6           1            37   31     2      -0.1966785556E-04      37   31    2        -0.1102001049E-02      0.1229467654E-01
          0                 7           1            33   33     2      -0.1144959049E-04      33   31    2        -0.9413178479E-03      0.1115857279E-01
          0                 8           1            37   31     2      -0.1658182004E-04      37   31    2        -0.7947783260E-03      0.9842065323E-02
          0                 9           1            33   33     2      -0.8785833577E-05      33   31    2        -0.7492013967E-03      0.9001198336E-02

    ------------------------------------------------
       NWT REQUIRED            9 OUTER ITERATIONS 
       AND A TOTAL OF          9 INNER ITERATIONS.
    ------------------------------------------------

 OUTPUT CONTROL FOR STRESS PERIOD    3   TIME STEP    2
    PRINT BUDGET
    SAVE HEAD FOR ALL LAYERS
 SOLVING FOR ZETA FOR LAYER     1 ZONE     2

     709 UPPER PART EQS.       713 LOWER PART EQS.    BAND WIDTH + 1 =   31
 STRESS PERIOD=  3 TIMESTEP=  2 LAYER=  1 ZONE=  2 ACTIVE CELLS= 1422 NUMBER OF EQUATIONS=    1422
 SOLVING FOR ZETA FOR LAYER     2 ZONE     2

     633 UPPER PART EQS.       642 LOWER PART EQS.    BAND WIDTH + 1 =   35
 STRESS PERIOD=  3 TIMESTEP=  2 LAYER=  2 ZONE=  2 ACTIVE CELLS= 1275 NUMBER OF EQUATIONS=    1275
 UBUDSV SAVING "      ZETASRF  1" ON UNIT 55 AT TIME STEP  2, STRESS PERIOD    3


                      VOLUMETRIC SWI ZONE BUDGET FOR ENTIRE MODEL
                     AT END OF TIME STEP    2 IN STRESS PERIOD   3
                                      ZONE     1
  -----------------------------------------------------------------------------------

        CUMULATIVE VOLUMES      L**3       RATES FOR THIS TIME STEP      L**3/T
        ------------------                 ------------------------

              IN:                                      IN:
              ---                                      ---
             BOUNDARIES =   130193176.0000            BOUNDARIES =        1680.0000
          CONSTANT HEAD =           0.0000         CONSTANT HEAD =           0.0000
            ZONE CHANGE =     1037448.6250           ZONE CHANGE =         109.3124
       ZONE CHG TIP/TOE =      418789.5312      ZONE CHG TIP/TOE =           4.1189
            ZONE MIXING =           0.0000           ZONE MIXING =           0.0000

               TOTAL IN =   131649416.0000              TOTAL IN =        1793.4314

             OUT:                                     OUT:
             ----                                     ----
             BOUNDARIES =   113043088.0000            BOUNDARIES =        1775.0355
          CONSTANT HEAD =           0.0000         CONSTANT HEAD =           0.0000
            ZONE CHANGE =    18908146.0000           ZONE CHANGE =          14.5306
       ZONE CHG TIP/TOE =      430284.7500      ZONE CHG TIP/TOE =           4.0853
            ZONE MIXING =           0.0000           ZONE MIXING =           0.0000

              TOTAL OUT =   132381520.0000             TOTAL OUT =        1793.6515

               IN - OUT =     -732104.0000              IN - OUT =          -0.2201

    PERCENT DISCREPANCY =          -0.55     PERCENT DISCREPANCY =          -0.01



                      VOLUMETRIC SWI ZONE BUDGET FOR ENTIRE MODEL
                     AT END OF TIME STEP    2 IN STRESS PERIOD   3
                                      ZONE     2
  -----------------------------------------------------------------------------------

        CUMULATIVE VOLUMES      L**3       RATES FOR THIS TIME STEP      L**3/T
        ------------------                 ------------------------

              IN:                                      IN:
              ---                                      ---
             BOUNDARIES =      514113.6250            BOUNDARIES =         119.7354
          CONSTANT HEAD =           0.0000         CONSTANT HEAD =           0.0000
            ZONE CHANGE =    18866390.0000           ZONE CHANGE =          14.2300
       ZONE CHG TIP/TOE =     1168581.3750      ZONE CHG TIP/TOE =           4.0853
            ZONE MIXING =           0.0000           ZONE MIXING =           0.0000

               TOTAL IN =    20549086.0000              TOTAL IN =         138.0507

             OUT:                                     OUT:
             ----                                     ----
             BOUNDARIES =    17655894.0000            BOUNDARIES =          25.0000
          CONSTANT HEAD =           0.0000         CONSTANT HEAD =           0.0000
            ZONE CHANGE =     1775743.2500           ZONE CHANGE =         109.3124
       ZONE CHG TIP/TOE =      377039.9375      ZONE CHG TIP/TOE =           3.8183
            ZONE MIXING =           0.0000           ZONE MIXING =           0.0000

              TOTAL OUT =    19808678.0000             TOTAL OUT =         138.1307

               IN - OUT =      740408.0000              IN - OUT =      -7.9987E-02

    PERCENT DISCREPANCY =           3.67     PERCENT DISCREPANCY =          -0.06


 HEAD WILL BE SAVED ON UNIT   51 AT END OF TIME STEP    2, STRESS PERIOD    3
1
  VOLUMETRIC BUDGET FOR ENTIRE MODEL AT END OF TIME STEP    2, STRESS PERIOD   3
  ------------------------------------------------------------------------------

     CUMULATIVE VOLUMES      L**3       RATES FOR THIS TIME STEP      L**3/T
     ------------------                 ------------------------

           IN:                                      IN:
           ---                                      ---
             STORAGE =           0.0000               STORAGE =           0.0000
       CONSTANT HEAD =           0.0000         CONSTANT HEAD =           0.0000
               WELLS =   130198056.0000                 WELLS =        1681.0000
     HEAD DEP BOUNDS =      514113.6250       HEAD DEP BOUNDS =         119.7354
          SWIADDTOCH =           0.0000            SWIADDTOCH =           0.0000

            TOTAL IN =   130712168.0000              TOTAL IN =        1800.7354

          OUT:                                     OUT:
          ----                                     ----
             STORAGE =           0.0000               STORAGE =           0.0000
       CONSTANT HEAD =           0.0000         CONSTANT HEAD =           0.0000
               WELLS =     1115075.0000                 WELLS =         275.0000
     HEAD DEP BOUNDS =   129588304.0000       HEAD DEP BOUNDS =        1526.0355
          SWIADDTOCH =           0.0000            SWIADDTOCH =           0.0000

           TOTAL OUT =   130703376.0000             TOTAL OUT =        1801.0355

            IN - OUT =        8792.0000              IN - OUT =          -0.3002

 PERCENT DISCREPANCY =           0.01     PERCENT DISCREPANCY =          -0.02






         TIME SUMMARY AT END OF TIME STEP    2 IN STRESS PERIOD    3
                    SECONDS     MINUTES      HOURS       DAYS        YEARS
                    -----------------------------------------------------------
   TIME STEP LENGTH 3.15360E+06  52560.      876.00      36.500     9.99316E-02
 STRESS PERIOD TIME 6.30720E+06 1.05120E+05  1752.0      73.000     0.19986    
         TOTAL TIME 6.69194E+09 1.11532E+08 1.85887E+06  77453.      212.05    
1
 
 SOLVING FOR HEAD 
                                                   Max.-Head-Change                         Max.-Flux-Residual
  Residual-Control   Outer-Iter.   Inner-Iter.     Column Row Layer    Maximum-Head-Change  Column Row Layer    Maximum-Flux-Residual          L2-NORM 
          0                 1           1            36   31     2       0.2961117385E-02      36   31    2         0.1890450478E+01      0.2097452711E+01
          0                 2           1            33   33     2       0.3971748628E-04      33   33    2         0.1449939674E-01      0.4934072552E-01
          0                 3           1            44   31     1      -0.1542702349E-04      36   32    2         0.1342020348E-02      0.1320776559E-01
          0                 4           1            37   31     2      -0.1421047837E-04      36   32    2        -0.9326750036E-03      0.1030625727E-01
          0                 5           1            39   29     2      -0.9811341775E-05      34   34    2        -0.7224112602E-03      0.9285141591E-02

    ------------------------------------------------
       NWT REQUIRED            5 OUTER ITERATIONS 
       AND A TOTAL OF          5 INNER ITERATIONS.
    ------------------------------------------------

 OUTPUT CONTROL FOR STRESS PERIOD    3   TIME STEP    3
    PRINT BUDGET
    SAVE HEAD FOR ALL LAYERS
 SOLVING FOR ZETA FOR LAYER     1 ZONE     2

     704 UPPER PART EQS.       723 LOWER PART EQS.    BAND WIDTH + 1 =   40
 STRESS PERIOD=  3 TIMESTEP=  3 LAYER=  1 ZONE=  2 ACTIVE CELLS= 1427 NUMBER OF EQUATIONS=    1427
 SOLVING FOR ZETA FOR LAYER     2 ZONE     2

     633 UPPER PART EQS.       642 LOWER PART EQS.    BAND WIDTH + 1 =   35
 STRESS PERIOD=  3 TIMESTEP=  3 LAYER=  2 ZONE=  2 ACTIVE CELLS= 1275 NUMBER OF EQUATIONS=    1275
 UBUDSV SAVING "      ZETASRF  1" ON UNIT 55 AT TIME STEP  3, STRESS PERIOD    3


                      VOLUMETRIC SWI ZONE BUDGET FOR ENTIRE MODEL
                     AT END OF TIME STEP    3 IN STRESS PERIOD   3
                                      ZONE     1
  -----------------------------------------------------------------------------------

        CUMULATIVE VOLUMES      L**3       RATES FOR THIS TIME STEP      L**3/T
        ------------------                 ------------------------

              IN:                                      IN:
              ---                                      ---
             BOUNDARIES =   130254496.0000            BOUNDARIES =        1680.0000
          CONSTANT HEAD =           0.0000         CONSTANT HEAD =           0.0000
            ZONE CHANGE =     1041422.2500           ZONE CHANGE =         108.8664
       ZONE CHG TIP/TOE =      418899.3438      ZONE CHG TIP/TOE =           3.0084
            ZONE MIXING =           0.0000           ZONE MIXING =           0.0000

               TOTAL IN =   131714816.0000              TOTAL IN =        1791.8749

             OUT:                                     OUT:
             ----                                     ----
             BOUNDARIES =   113107880.0000            BOUNDARIES =        1775.1281
          CONSTANT HEAD =           0.0000         CONSTANT HEAD =           0.0000
            ZONE CHANGE =    18908656.0000           ZONE CHANGE =          13.9971
       ZONE CHG TIP/TOE =      430394.5625      ZONE CHG TIP/TOE =           3.0084
            ZONE MIXING =           0.0000           ZONE MIXING =           0.0000

              TOTAL OUT =   132446928.0000             TOTAL OUT =        1792.1335

               IN - OUT =     -732112.0000              IN - OUT =          -0.2587

    PERCENT DISCREPANCY =          -0.55     PERCENT DISCREPANCY =          -0.01



                      VOLUMETRIC SWI ZONE BUDGET FOR ENTIRE MODEL
                     AT END OF TIME STEP    3 IN STRESS PERIOD   3
                                      ZONE     2
  -----------------------------------------------------------------------------------

        CUMULATIVE VOLUMES      L**3       RATES FOR THIS TIME STEP      L**3/T
        ------------------                 ------------------------

              IN:                                      IN:
              ---                                      ---
             BOUNDARIES =      518487.1250            BOUNDARIES =         119.8215
          CONSTANT HEAD =           0.0000         CONSTANT HEAD =           0.0000
            ZONE CHANGE =    18866898.0000           ZONE CHANGE =          13.9231
       ZONE CHG TIP/TOE =     1168691.1250      ZONE CHG TIP/TOE =           3.0084
            ZONE MIXING =           0.0000           ZONE MIXING =           0.0000

               TOTAL IN =    20554078.0000              TOTAL IN =         136.7530

             OUT:                                     OUT:
             ----                                     ----
             BOUNDARIES =    17656806.0000            BOUNDARIES =          25.0000
          CONSTANT HEAD =           0.0000         CONSTANT HEAD =           0.0000
            ZONE CHANGE =     1779716.8750           ZONE CHANGE =         108.8664
       ZONE CHG TIP/TOE =      377147.0312      ZONE CHG TIP/TOE =           2.9344
            ZONE MIXING =           0.0000           ZONE MIXING =           0.0000

              TOTAL OUT =    19813670.0000             TOTAL OUT =         136.8009

               IN - OUT =      740408.0000              IN - OUT =      -4.7852E-02

    PERCENT DISCREPANCY =           3.67     PERCENT DISCREPANCY =          -0.03


 HEAD WILL BE SAVED ON UNIT   51 AT END OF TIME STEP    3, STRESS PERIOD    3
1
  VOLUMETRIC BUDGET FOR ENTIRE MODEL AT END OF TIME STEP    3, STRESS PERIOD   3
  ------------------------------------------------------------------------------

     CUMULATIVE VOLUMES      L**3       RATES FOR THIS TIME STEP      L**3/T
     ------------------                 ------------------------

           IN:                                      IN:
           ---                                      ---
             STORAGE =           0.0000               STORAGE =           0.0000
       CONSTANT HEAD =           0.0000         CONSTANT HEAD =           0.0000
               WELLS =   130259416.0000                 WELLS =        1681.0000
     HEAD DEP BOUNDS =      518487.1250       HEAD DEP BOUNDS =         119.8215
          SWIADDTOCH =           0.0000            SWIADDTOCH =           0.0000

            TOTAL IN =   130777904.0000              TOTAL IN =        1800.8215

          OUT:                                     OUT:
          ----                                     ----
             STORAGE =           0.0000               STORAGE =           0.0000
       CONSTANT HEAD =           0.0000         CONSTANT HEAD =           0.0000
               WELLS =     1125112.5000                 WELLS =         275.0000
     HEAD DEP BOUNDS =   129644008.0000       HEAD DEP BOUNDS =        1526.1281
          SWIADDTOCH =           0.0000            SWIADDTOCH =           0.0000

           TOTAL OUT =   130769120.0000             TOTAL OUT =        1801.1281

            IN - OUT =        8784.0000              IN - OUT =          -0.3065

 PERCENT DISCREPANCY =           0.01     PERCENT DISCREPANCY =          -0.02






         TIME SUMMARY AT END OF TIME STEP    3 IN STRESS PERIOD    3
                    SECONDS     MINUTES      HOURS       DAYS        YEARS
                    -----------------------------------------------------------
   TIME STEP LENGTH 3.15360E+06  52560.      876.00      36.500     9.99316E-02
 STRESS PERIOD TIME 9.46080E+06 1.57680E+05  2628.0      109.50     0.29979    
         TOTAL TIME 6.69509E+09 1.11585E+08 1.85975E+06  77490.      212.15    
1
 
 SOLVING FOR HEAD 
                                                   Max.-Head-Change                         Max.-Flux-Residual
  Residual-Control   Outer-Iter.   Inner-Iter.     Column Row Layer    Maximum-Head-Change  Column Row Layer    Maximum-Flux-Residual          L2-NORM 
          0                 1           1            36   31     2       0.2880941165E-02      36   31    2         0.1872171381E+01      0.1992425088E+01
          0                 2           1            33   33     2       0.3644449706E-04      33   33    2         0.1313262934E-01      0.4582001826E-01
          0                 3           1            43   34     1      -0.2289474752E-04      45   32    1        -0.1455460218E-02      0.1490742870E-01
          0                 4           1            37   31     2      -0.1825564698E-04      37   31    2        -0.1290707724E-02      0.1173353547E-01
          0                 5           1            39   29     2      -0.1243432445E-04      38   33    1        -0.9222993916E-03      0.1036393516E-01
          0                 6           1            37   31     2      -0.1469242091E-04      37   31    2        -0.8299452243E-03      0.9061239451E-02
          0                 7           1            39   29     2      -0.8479839225E-05      38   33    1        -0.7075744085E-03      0.8172620445E-02

    ------------------------------------------------
       NWT REQUIRED            7 OUTER ITERATIONS 
       AND A TOTAL OF          7 INNER ITERATIONS.
    ------------------------------------------------

 OUTPUT CONTROL FOR STRESS PERIOD    3   TIME STEP    4
    PRINT BUDGET
    SAVE HEAD FOR ALL LAYERS
 SOLVING FOR ZETA FOR LAYER     1 ZONE     2

     707 UPPER PART EQS.       727 LOWER PART EQS.    BAND WIDTH + 1 =   41
 STRESS PERIOD=  3 TIMESTEP=  4 LAYER=  1 ZONE=  2 ACTIVE CELLS= 1434 NUMBER OF EQUATIONS=    1434
 SOLVING FOR ZETA FOR LAYER     2 ZONE     2

     633 UPPER PART EQS.       642 LOWER PART EQS.    BAND WIDTH + 1 =   35
 STRESS PERIOD=  3 TIMESTEP=  4 LAYER=  2 ZONE=  2 ACTIVE CELLS= 1275 NUMBER OF EQUATIONS=    1275
 UBUDSV SAVING "      ZETASRF  1" ON UNIT 55 AT TIME STEP  4, STRESS PERIOD    3


                      VOLUMETRIC SWI ZONE BUDGET FOR ENTIRE MODEL
                     AT END OF TIME STEP    4 IN STRESS PERIOD   3
                                      ZONE     1
  -----------------------------------------------------------------------------------

        CUMULATIVE VOLUMES      L**3       RATES FOR THIS TIME STEP      L**3/T
        ------------------                 ------------------------

              IN:                                      IN:
              ---                                      ---
             BOUNDARIES =   130315816.0000            BOUNDARIES =        1680.0000
          CONSTANT HEAD =           0.0000         CONSTANT HEAD =           0.0000
            ZONE CHANGE =     1045397.0625           ZONE CHANGE =         108.8994
       ZONE CHG TIP/TOE =      418984.8438      ZONE CHG TIP/TOE =           2.3421
            ZONE MIXING =           0.0000           ZONE MIXING =           0.0000

               TOTAL IN =   131780200.0000              TOTAL IN =        1791.2416

             OUT:                                     OUT:
             ----                                     ----
             BOUNDARIES =   113172672.0000            BOUNDARIES =        1775.1720
          CONSTANT HEAD =           0.0000         CONSTANT HEAD =           0.0000
            ZONE CHANGE =    18909164.0000           ZONE CHANGE =          13.9451
       ZONE CHG TIP/TOE =      430491.0625      ZONE CHG TIP/TOE =           2.6440
            ZONE MIXING =           0.0000           ZONE MIXING =           0.0000

              TOTAL OUT =   132512328.0000             TOTAL OUT =        1791.7611

               IN - OUT =     -732128.0000              IN - OUT =          -0.5195

    PERCENT DISCREPANCY =          -0.55     PERCENT DISCREPANCY =          -0.03



                      VOLUMETRIC SWI ZONE BUDGET FOR ENTIRE MODEL
                     AT END OF TIME STEP    4 IN STRESS PERIOD   3
                                      ZONE     2
  -----------------------------------------------------------------------------------

        CUMULATIVE VOLUMES      L**3       RATES FOR THIS TIME STEP      L**3/T
        ------------------                 ------------------------

              IN:                                      IN:
              ---                                      ---
             BOUNDARIES =      522863.9062            BOUNDARIES =         119.9117
          CONSTANT HEAD =           0.0000         CONSTANT HEAD =           0.0000
            ZONE CHANGE =    18867398.0000           ZONE CHANGE =          13.7224
       ZONE CHG TIP/TOE =     1168787.6250      ZONE CHG TIP/TOE =           2.6440
            ZONE MIXING =           0.0000           ZONE MIXING =           0.0000

               TOTAL IN =    20559050.0000              TOTAL IN =         136.2782

             OUT:                                     OUT:
             ----                                     ----
             BOUNDARIES =    17657718.0000            BOUNDARIES =          25.0000
          CONSTANT HEAD =           0.0000         CONSTANT HEAD =           0.0000
            ZONE CHANGE =     1783691.7500           ZONE CHANGE =         108.8994
       ZONE CHG TIP/TOE =      377224.4062      ZONE CHG TIP/TOE =           2.1195
            ZONE MIXING =           0.0000           ZONE MIXING =           0.0000

              TOTAL OUT =    19818634.0000             TOTAL OUT =         136.0189

               IN - OUT =      740416.0000              IN - OUT =           0.2593

    PERCENT DISCREPANCY =           3.67     PERCENT DISCREPANCY =           0.19


 HEAD WILL BE SAVED ON UNIT   51 AT END OF TIME STEP    4, STRESS PERIOD    3
1
  VOLUMETRIC BUDGET FOR ENTIRE MODEL AT END OF TIME STEP    4, STRESS PERIOD   3
  ------------------------------------------------------------------------------

     CUMULATIVE VOLUMES      L**3       RATES FOR THIS TIME STEP      L**3/T
     ------------------                 ------------------------

           IN:                                      IN:
           ---                                      ---
             STORAGE =           0.0000               STORAGE =           0.0000
       CONSTANT HEAD =           0.0000         CONSTANT HEAD =           0.0000
               WELLS =   130320776.0000                 WELLS =        1681.0000
     HEAD DEP BOUNDS =      522863.9062       HEAD DEP BOUNDS =         119.9117
          SWIADDTOCH =           0.0000            SWIADDTOCH =           0.0000

            TOTAL IN =   130843640.0000              TOTAL IN =        1800.9117

          OUT:                                     OUT:
          ----                                     ----
             STORAGE =           0.0000               STORAGE =           0.0000
       CONSTANT HEAD =           0.0000         CONSTANT HEAD =           0.0000
               WELLS =     1135150.0000                 WELLS =         275.0000
     HEAD DEP BOUNDS =   129699712.0000       HEAD DEP BOUNDS =        1526.1720
          SWIADDTOCH =           0.0000            SWIADDTOCH =           0.0000

           TOTAL OUT =   130834864.0000             TOTAL OUT =        1801.1720

            IN - OUT =        8776.0000              IN - OUT =          -0.2603

 PERCENT DISCREPANCY =           0.01     PERCENT DISCREPANCY =          -0.01






         TIME SUMMARY AT END OF TIME STEP    4 IN STRESS PERIOD    3
                    SECONDS     MINUTES      HOURS       DAYS        YEARS
                    -----------------------------------------------------------
   TIME STEP LENGTH 3.15360E+06  52560.      876.00      36.500     9.99316E-02
 STRESS PERIOD TIME 1.26144E+07 2.10240E+05  3504.0      146.00     0.39973    
         TOTAL TIME 6.69825E+09 1.11637E+08 1.86062E+06  77526.      212.25    
1
 
 SOLVING FOR HEAD 
                                                   Max.-Head-Change                         Max.-Flux-Residual
  Residual-Control   Outer-Iter.   Inner-Iter.     Column Row Layer    Maximum-Head-Change  Column Row Layer    Maximum-Flux-Residual          L2-NORM 
          0                 1           1            36   31     2       0.2791688410E-02      36   31    2         0.1839406490E+01      0.1963114873E+01
          0                 2           1            33   33     2       0.3398500703E-04      33   33    2         0.1200828014E-01      0.4396029065E-01
          0                 3           1            42   35     1      -0.2421374536E-04      42   35    1        -0.1319148169E-02      0.1581187345E-01
          0                 4           1            37   31     2      -0.1880940725E-04      37   31    2        -0.1382108572E-02      0.1255949064E-01
          0                 5           1            39   29     2      -0.1327930995E-04      39   29    2        -0.1160114055E-02      0.1117164554E-01
          0                 6           1            37   31     2      -0.1600038929E-04      37   31    2        -0.8863245885E-03      0.9841385036E-02
          0                 7           1            34   34     2      -0.9054881706E-05      39   29    2        -0.8815691597E-03      0.8924383992E-02

    ------------------------------------------------
       NWT REQUIRED            7 OUTER ITERATIONS 
       AND A TOTAL OF          7 INNER ITERATIONS.
    ------------------------------------------------

 OUTPUT CONTROL FOR STRESS PERIOD    3   TIME STEP    5
    PRINT BUDGET
    SAVE HEAD FOR ALL LAYERS
 SOLVING FOR ZETA FOR LAYER     1 ZONE     2

     709 UPPER PART EQS.       721 LOWER PART EQS.    BAND WIDTH + 1 =   33
 STRESS PERIOD=  3 TIMESTEP=  5 LAYER=  1 ZONE=  2 ACTIVE CELLS= 1430 NUMBER OF EQUATIONS=    1430
 SOLVING FOR ZETA FOR LAYER     2 ZONE     2

     633 UPPER PART EQS.       642 LOWER PART EQS.    BAND WIDTH + 1 =   35
 STRESS PERIOD=  3 TIMESTEP=  5 LAYER=  2 ZONE=  2 ACTIVE CELLS= 1275 NUMBER OF EQUATIONS=    1275
 UBUDSV SAVING "      ZETASRF  1" ON UNIT 55 AT TIME STEP  5, STRESS PERIOD    3


                      VOLUMETRIC SWI ZONE BUDGET FOR ENTIRE MODEL
                     AT END OF TIME STEP    5 IN STRESS PERIOD   3
                                      ZONE     1
  -----------------------------------------------------------------------------------

        CUMULATIVE VOLUMES      L**3       RATES FOR THIS TIME STEP      L**3/T
        ------------------                 ------------------------

              IN:                                      IN:
              ---                                      ---
             BOUNDARIES =   130377136.0000            BOUNDARIES =        1680.0000
          CONSTANT HEAD =           0.0000         CONSTANT HEAD =           0.0000
            ZONE CHANGE =     1049340.1250           ZONE CHANGE =         108.0285
       ZONE CHG TIP/TOE =      419092.6250      ZONE CHG TIP/TOE =           2.9529
            ZONE MIXING =           0.0000           ZONE MIXING =           0.0000

               TOTAL IN =   131845576.0000              TOTAL IN =        1790.9814

             OUT:                                     OUT:
             ----                                     ----
             BOUNDARIES =   113237472.0000            BOUNDARIES =        1775.2681
          CONSTANT HEAD =           0.0000         CONSTANT HEAD =           0.0000
            ZONE CHANGE =    18909638.0000           ZONE CHANGE =          13.0042
       ZONE CHG TIP/TOE =      430611.3438      ZONE CHG TIP/TOE =           3.2954
            ZONE MIXING =           0.0000           ZONE MIXING =           0.0000

              TOTAL OUT =   132577720.0000             TOTAL OUT =        1791.5676

               IN - OUT =     -732144.0000              IN - OUT =          -0.5862

    PERCENT DISCREPANCY =          -0.55     PERCENT DISCREPANCY =          -0.03



                      VOLUMETRIC SWI ZONE BUDGET FOR ENTIRE MODEL
                     AT END OF TIME STEP    5 IN STRESS PERIOD   3
                                      ZONE     2
  -----------------------------------------------------------------------------------

        CUMULATIVE VOLUMES      L**3       RATES FOR THIS TIME STEP      L**3/T
        ------------------                 ------------------------

              IN:                                      IN:
              ---                                      ---
             BOUNDARIES =      527243.1875            BOUNDARIES =         119.9797
          CONSTANT HEAD =           0.0000         CONSTANT HEAD =           0.0000
            ZONE CHANGE =    18867866.0000           ZONE CHANGE =          12.8166
       ZONE CHG TIP/TOE =     1168907.8750      ZONE CHG TIP/TOE =           3.2954
            ZONE MIXING =           0.0000           ZONE MIXING =           0.0000

               TOTAL IN =    20564018.0000              TOTAL IN =         136.0917

             OUT:                                     OUT:
             ----                                     ----
             BOUNDARIES =    17658630.0000            BOUNDARIES =          25.0000
          CONSTANT HEAD =           0.0000         CONSTANT HEAD =           0.0000
            ZONE CHANGE =     1787634.7500           ZONE CHANGE =         108.0285
       ZONE CHG TIP/TOE =      377325.3438      ZONE CHG TIP/TOE =           2.7653
            ZONE MIXING =           0.0000           ZONE MIXING =           0.0000

              TOTAL OUT =    19823590.0000             TOTAL OUT =         135.7938

               IN - OUT =      740428.0000              IN - OUT =           0.2978

    PERCENT DISCREPANCY =           3.67     PERCENT DISCREPANCY =           0.22


 HEAD WILL BE SAVED ON UNIT   51 AT END OF TIME STEP    5, STRESS PERIOD    3
1
  VOLUMETRIC BUDGET FOR ENTIRE MODEL AT END OF TIME STEP    5, STRESS PERIOD   3
  ------------------------------------------------------------------------------

     CUMULATIVE VOLUMES      L**3       RATES FOR THIS TIME STEP      L**3/T
     ------------------                 ------------------------

           IN:                                      IN:
           ---                                      ---
             STORAGE =           0.0000               STORAGE =           0.0000
       CONSTANT HEAD =           0.0000         CONSTANT HEAD =           0.0000
               WELLS =   130382136.0000                 WELLS =        1681.0000
     HEAD DEP BOUNDS =      527243.1875       HEAD DEP BOUNDS =         119.9797
          SWIADDTOCH =           0.0000            SWIADDTOCH =           0.0000

            TOTAL IN =   130909376.0000              TOTAL IN =        1800.9797

          OUT:                                     OUT:
          ----                                     ----
             STORAGE =           0.0000               STORAGE =           0.0000
       CONSTANT HEAD =           0.0000         CONSTANT HEAD =           0.0000
               WELLS =     1145187.5000                 WELLS =         275.0000
     HEAD DEP BOUNDS =   129755424.0000       HEAD DEP BOUNDS =        1526.2681
          SWIADDTOCH =           0.0000            SWIADDTOCH =           0.0000

           TOTAL OUT =   130900608.0000             TOTAL OUT =        1801.2681

            IN - OUT =        8768.0000              IN - OUT =          -0.2883

 PERCENT DISCREPANCY =           0.01     PERCENT DISCREPANCY =          -0.02






         TIME SUMMARY AT END OF TIME STEP    5 IN STRESS PERIOD    3
                    SECONDS     MINUTES      HOURS       DAYS        YEARS
                    -----------------------------------------------------------
   TIME STEP LENGTH 3.15360E+06  52560.      876.00      36.500     9.99316E-02
 STRESS PERIOD TIME 1.57680E+07 2.62800E+05  4380.0      182.50     0.49966    
         TOTAL TIME 6.70140E+09 1.11690E+08 1.86150E+06  77562.      212.35    
1
 
 SOLVING FOR HEAD 
                                                   Max.-Head-Change                         Max.-Flux-Residual
  Residual-Control   Outer-Iter.   Inner-Iter.     Column Row Layer    Maximum-Head-Change  Column Row Layer    Maximum-Flux-Residual          L2-NORM 
          0                 1           1            36   31     2       0.2694324823E-02      36   31    2         0.1794439316E+01      0.1997130689E+01
          0                 2           1            44   31     1      -0.3474458170E-04      33   33    2         0.1107218437E-01      0.4574291132E-01
          0                 3           1            42   32     2      -0.2926980483E-04      41   31    2        -0.1568139827E-02      0.1774006277E-01
          0                 4           1            37   31     2      -0.2106718933E-04      37   31    2        -0.1611702837E-02      0.1405030067E-01
          0                 5           1            41   31     2      -0.1581980964E-04      39   29    2        -0.1283683252E-02      0.1238152439E-01
          0                 6           1            37   31     2      -0.1701832079E-04      37   31    2        -0.1009257146E-02      0.1088949124E-01
          0                 7           1            39   29     2      -0.1044404596E-04      39   29    2        -0.9425323917E-03      0.9806716724E-02
          0                 8           1            37   31     2      -0.1383157677E-04      37   31    2        -0.7147786143E-03      0.8599423661E-02
          0                 9           1            34   34     2      -0.7959873694E-05      34   34    2        -0.7366739670E-03      0.7857591068E-02

    ------------------------------------------------
       NWT REQUIRED            9 OUTER ITERATIONS 
       AND A TOTAL OF          9 INNER ITERATIONS.
    ------------------------------------------------

 OUTPUT CONTROL FOR STRESS PERIOD    3   TIME STEP    6
    PRINT BUDGET
    SAVE HEAD FOR ALL LAYERS
 SOLVING FOR ZETA FOR LAYER     1 ZONE     2

     713 UPPER PART EQS.       713 LOWER PART EQS.    BAND WIDTH + 1 =   31
 STRESS PERIOD=  3 TIMESTEP=  6 LAYER=  1 ZONE=  2 ACTIVE CELLS= 1426 NUMBER OF EQUATIONS=    1426
 SOLVING FOR ZETA FOR LAYER     2 ZONE     2

     633 UPPER PART EQS.       642 LOWER PART EQS.    BAND WIDTH + 1 =   35
 STRESS PERIOD=  3 TIMESTEP=  6 LAYER=  2 ZONE=  2 ACTIVE CELLS= 1275 NUMBER OF EQUATIONS=    1275
 UBUDSV SAVING "      ZETASRF  1" ON UNIT 55 AT TIME STEP  6, STRESS PERIOD    3


                      VOLUMETRIC SWI ZONE BUDGET FOR ENTIRE MODEL
                     AT END OF TIME STEP    6 IN STRESS PERIOD   3
                                      ZONE     1
  -----------------------------------------------------------------------------------

        CUMULATIVE VOLUMES      L**3       RATES FOR THIS TIME STEP      L**3/T
        ------------------                 ------------------------

              IN:                                      IN:
              ---                                      ---
             BOUNDARIES =   130438456.0000            BOUNDARIES =        1680.0000
          CONSTANT HEAD =           0.0000         CONSTANT HEAD =           0.0000
            ZONE CHANGE =     1053266.2500           ZONE CHANGE =         107.5665
       ZONE CHG TIP/TOE =      419233.6250      ZONE CHG TIP/TOE =           3.8629
            ZONE MIXING =           0.0000           ZONE MIXING =           0.0000

               TOTAL IN =   131910952.0000              TOTAL IN =        1791.4293

             OUT:                                     OUT:
             ----                                     ----
             BOUNDARIES =   113302272.0000            BOUNDARIES =        1775.3124
          CONSTANT HEAD =           0.0000         CONSTANT HEAD =           0.0000
            ZONE CHANGE =    18910094.0000           ZONE CHANGE =          12.4661
       ZONE CHG TIP/TOE =      430777.3438      ZONE CHG TIP/TOE =           4.5479
            ZONE MIXING =           0.0000           ZONE MIXING =           0.0000

              TOTAL OUT =   132643144.0000             TOTAL OUT =        1792.3263

               IN - OUT =     -732192.0000              IN - OUT =          -0.8970

    PERCENT DISCREPANCY =          -0.55     PERCENT DISCREPANCY =          -0.05



                      VOLUMETRIC SWI ZONE BUDGET FOR ENTIRE MODEL
                     AT END OF TIME STEP    6 IN STRESS PERIOD   3
                                      ZONE     2
  -----------------------------------------------------------------------------------

        CUMULATIVE VOLUMES      L**3       RATES FOR THIS TIME STEP      L**3/T
        ------------------                 ------------------------

              IN:                                      IN:
              ---                                      ---
             BOUNDARIES =      531625.2500            BOUNDARIES =         120.0572
          CONSTANT HEAD =           0.0000         CONSTANT HEAD =           0.0000
            ZONE CHANGE =    18868308.0000           ZONE CHANGE =          12.0956
       ZONE CHG TIP/TOE =     1169073.8750      ZONE CHG TIP/TOE =           4.5479
            ZONE MIXING =           0.0000           ZONE MIXING =           0.0000

               TOTAL IN =    20569008.0000              TOTAL IN =         136.7007

             OUT:                                     OUT:
             ----                                     ----
             BOUNDARIES =    17659542.0000            BOUNDARIES =          25.0000
          CONSTANT HEAD =           0.0000         CONSTANT HEAD =           0.0000
            ZONE CHANGE =     1791560.8750           ZONE CHANGE =         107.5665
       ZONE CHG TIP/TOE =      377452.8125      ZONE CHG TIP/TOE =           3.4924
            ZONE MIXING =           0.0000           ZONE MIXING =           0.0000

              TOTAL OUT =    19828554.0000             TOTAL OUT =         136.0589

               IN - OUT =      740454.0000              IN - OUT =           0.6418

    PERCENT DISCREPANCY =           3.67     PERCENT DISCREPANCY =           0.47


 HEAD WILL BE SAVED ON UNIT   51 AT END OF TIME STEP    6, STRESS PERIOD    3
1
  VOLUMETRIC BUDGET FOR ENTIRE MODEL AT END OF TIME STEP    6, STRESS PERIOD   3
  ------------------------------------------------------------------------------

     CUMULATIVE VOLUMES      L**3       RATES FOR THIS TIME STEP      L**3/T
     ------------------                 ------------------------

           IN:                                      IN:
           ---                                      ---
             STORAGE =           0.0000               STORAGE =           0.0000
       CONSTANT HEAD =           0.0000         CONSTANT HEAD =           0.0000
               WELLS =   130443496.0000                 WELLS =        1681.0000
     HEAD DEP BOUNDS =      531625.2500       HEAD DEP BOUNDS =         120.0572
          SWIADDTOCH =           0.0000            SWIADDTOCH =           0.0000

            TOTAL IN =   130975120.0000              TOTAL IN =        1801.0573

          OUT:                                     OUT:
          ----                                     ----
             STORAGE =           0.0000               STORAGE =           0.0000
       CONSTANT HEAD =           0.0000         CONSTANT HEAD =           0.0000
               WELLS =     1155225.0000                 WELLS =         275.0000
     HEAD DEP BOUNDS =   129811136.0000       HEAD DEP BOUNDS =        1526.3124
          SWIADDTOCH =           0.0000            SWIADDTOCH =           0.0000

           TOTAL OUT =   130966360.0000             TOTAL OUT =        1801.3124

            IN - OUT =        8760.0000              IN - OUT =          -0.2551

 PERCENT DISCREPANCY =           0.01     PERCENT DISCREPANCY =          -0.01






         TIME SUMMARY AT END OF TIME STEP    6 IN STRESS PERIOD    3
                    SECONDS     MINUTES      HOURS       DAYS        YEARS
                    -----------------------------------------------------------
   TIME STEP LENGTH 3.15360E+06  52560.      876.00      36.500     9.99316E-02
 STRESS PERIOD TIME 1.89216E+07 3.15360E+05  5256.0      219.00     0.59959    
         TOTAL TIME 6.70455E+09 1.11743E+08 1.86238E+06  77599.      212.45    
1
 
 SOLVING FOR HEAD 
                                                   Max.-Head-Change                         Max.-Flux-Residual
  Residual-Control   Outer-Iter.   Inner-Iter.     Column Row Layer    Maximum-Head-Change  Column Row Layer    Maximum-Flux-Residual          L2-NORM 
          0                 1           1            36   31     2       0.2590361948E-02      36   31    2         0.1739658108E+01      0.2032081822E+01
          0                 2           1            33   33     2       0.2855623332E-04      33   33    2         0.1026400010E-01      0.4292462032E-01
          0                 3           1            42   35     1      -0.1822242937E-04      45   28    1        -0.1049157669E-02      0.1408002086E-01
          0                 4           1            37   31     2      -0.1500065666E-04      37   31    2        -0.1090557118E-02      0.1126804808E-01
          0                 5           1            39   29     2      -0.1156240717E-04      39   29    2        -0.8974406273E-03      0.1010363719E-01
          0                 6           1            37   31     2      -0.1230675326E-04      36   32    2        -0.7605073091E-03      0.9038590084E-02
          0                 7           1            33   33     2      -0.8900593940E-05      39   29    2        -0.7079413070E-03      0.8193845361E-02

    ------------------------------------------------
       NWT REQUIRED            7 OUTER ITERATIONS 
       AND A TOTAL OF          7 INNER ITERATIONS.
    ------------------------------------------------

 OUTPUT CONTROL FOR STRESS PERIOD    3   TIME STEP    7
    PRINT BUDGET
    SAVE HEAD FOR ALL LAYERS
 SOLVING FOR ZETA FOR LAYER     1 ZONE     2

     700 UPPER PART EQS.       723 LOWER PART EQS.    BAND WIDTH + 1 =   44
 STRESS PERIOD=  3 TIMESTEP=  7 LAYER=  1 ZONE=  2 ACTIVE CELLS= 1423 NUMBER OF EQUATIONS=    1423
 SOLVING FOR ZETA FOR LAYER     2 ZONE     2

     633 UPPER PART EQS.       642 LOWER PART EQS.    BAND WIDTH + 1 =   35
 STRESS PERIOD=  3 TIMESTEP=  7 LAYER=  2 ZONE=  2 ACTIVE CELLS= 1275 NUMBER OF EQUATIONS=    1275
 UBUDSV SAVING "      ZETASRF  1" ON UNIT 55 AT TIME STEP  7, STRESS PERIOD    3


                      VOLUMETRIC SWI ZONE BUDGET FOR ENTIRE MODEL
                     AT END OF TIME STEP    7 IN STRESS PERIOD   3
                                      ZONE     1
  -----------------------------------------------------------------------------------

        CUMULATIVE VOLUMES      L**3       RATES FOR THIS TIME STEP      L**3/T
        ------------------                 ------------------------

              IN:                                      IN:
              ---                                      ---
             BOUNDARIES =   130499776.0000            BOUNDARIES =        1680.0000
          CONSTANT HEAD =           0.0000         CONSTANT HEAD =           0.0000
            ZONE CHANGE =     1057165.7500           ZONE CHANGE =         106.8358
       ZONE CHG TIP/TOE =      419379.9062      ZONE CHG TIP/TOE =           4.0080
            ZONE MIXING =           0.0000           ZONE MIXING =           0.0000

               TOTAL IN =   131976320.0000              TOTAL IN =        1790.8439

             OUT:                                     OUT:
             ----                                     ----
             BOUNDARIES =   113367072.0000            BOUNDARIES =        1775.3802
          CONSTANT HEAD =           0.0000         CONSTANT HEAD =           0.0000
            ZONE CHANGE =    18910520.0000           ZONE CHANGE =          11.6887
       ZONE CHG TIP/TOE =      430923.6250      ZONE CHG TIP/TOE =           4.0080
            ZONE MIXING =           0.0000           ZONE MIXING =           0.0000

              TOTAL OUT =   132708512.0000             TOTAL OUT =        1791.0769

               IN - OUT =     -732192.0000              IN - OUT =          -0.2330

    PERCENT DISCREPANCY =          -0.55     PERCENT DISCREPANCY =          -0.01



                      VOLUMETRIC SWI ZONE BUDGET FOR ENTIRE MODEL
                     AT END OF TIME STEP    7 IN STRESS PERIOD   3
                                      ZONE     2
  -----------------------------------------------------------------------------------

        CUMULATIVE VOLUMES      L**3       RATES FOR THIS TIME STEP      L**3/T
        ------------------                 ------------------------

              IN:                                      IN:
              ---                                      ---
             BOUNDARIES =      536009.1250            BOUNDARIES =         120.1067
          CONSTANT HEAD =           0.0000         CONSTANT HEAD =           0.0000
            ZONE CHANGE =    18868734.0000           ZONE CHANGE =          11.6887
       ZONE CHG TIP/TOE =     1169220.2500      ZONE CHG TIP/TOE =           4.0107
            ZONE MIXING =           0.0000           ZONE MIXING =           0.0000

               TOTAL IN =    20573964.0000              TOTAL IN =         135.8061

             OUT:                                     OUT:
             ----                                     ----
             BOUNDARIES =    17660454.0000            BOUNDARIES =          25.0000
          CONSTANT HEAD =           0.0000         CONSTANT HEAD =           0.0000
            ZONE CHANGE =     1795460.5000           ZONE CHANGE =         106.8385
       ZONE CHG TIP/TOE =      377599.0938      ZONE CHG TIP/TOE =           4.0080
            ZONE MIXING =           0.0000           ZONE MIXING =           0.0000

              TOTAL OUT =    19833514.0000             TOTAL OUT =         135.8465

               IN - OUT =      740450.0000              IN - OUT =      -4.0451E-02

    PERCENT DISCREPANCY =           3.66     PERCENT DISCREPANCY =          -0.03


 HEAD WILL BE SAVED ON UNIT   51 AT END OF TIME STEP    7, STRESS PERIOD    3
1
  VOLUMETRIC BUDGET FOR ENTIRE MODEL AT END OF TIME STEP    7, STRESS PERIOD   3
  ------------------------------------------------------------------------------

     CUMULATIVE VOLUMES      L**3       RATES FOR THIS TIME STEP      L**3/T
     ------------------                 ------------------------

           IN:                                      IN:
           ---                                      ---
             STORAGE =           0.0000               STORAGE =           0.0000
       CONSTANT HEAD =           0.0000         CONSTANT HEAD =           0.0000
               WELLS =   130504856.0000                 WELLS =        1681.0000
     HEAD DEP BOUNDS =      536009.1250       HEAD DEP BOUNDS =         120.1067
          SWIADDTOCH =           0.0000            SWIADDTOCH =           0.0000

            TOTAL IN =   131040864.0000              TOTAL IN =        1801.1067

          OUT:                                     OUT:
          ----                                     ----
             STORAGE =           0.0000               STORAGE =           0.0000
       CONSTANT HEAD =           0.0000         CONSTANT HEAD =           0.0000
               WELLS =     1165262.5000                 WELLS =         275.0000
     HEAD DEP BOUNDS =   129866848.0000       HEAD DEP BOUNDS =        1526.3802
          SWIADDTOCH =           0.0000            SWIADDTOCH =           0.0000

           TOTAL OUT =   131032112.0000             TOTAL OUT =        1801.3802

            IN - OUT =        8752.0000              IN - OUT =          -0.2736

 PERCENT DISCREPANCY =           0.01     PERCENT DISCREPANCY =          -0.02






         TIME SUMMARY AT END OF TIME STEP    7 IN STRESS PERIOD    3
                    SECONDS     MINUTES      HOURS       DAYS        YEARS
                    -----------------------------------------------------------
   TIME STEP LENGTH 3.15360E+06  52560.      876.00      36.500     9.99316E-02
 STRESS PERIOD TIME 2.20752E+07 3.67920E+05  6132.0      255.50     0.69952    
         TOTAL TIME 6.70771E+09 1.11795E+08 1.86325E+06  77636.      212.55    
1
 
 SOLVING FOR HEAD 
                                                   Max.-Head-Change                         Max.-Flux-Residual
  Residual-Control   Outer-Iter.   Inner-Iter.     Column Row Layer    Maximum-Head-Change  Column Row Layer    Maximum-Flux-Residual          L2-NORM 
          0                 1           1            36   31     2       0.2479795124E-02      36   31    2         0.1677144244E+01      0.1886760511E+01
          0                 2           1            33   33     2       0.2665364832E-04      33   33    2         0.9474689009E-02      0.4038672002E-01
          0                 3           1            43   34     1      -0.1953263643E-04      43   34    1        -0.1216106591E-02      0.1233143233E-01
          0                 4           1            37   31     2      -0.1505234777E-04      37   31    2        -0.1062399217E-02      0.9183834645E-02
          0                 5           1            39   29     2      -0.1035985503E-04      39   29    2        -0.8898298462E-03      0.7926832792E-02
          0                 6           1            37   31     2      -0.1111890807E-04      37   31    2        -0.6516755021E-03      0.6830671823E-02
          0                 7           1            39   29     2      -0.6840122888E-05      39   29    2        -0.6172569936E-03      0.6065149172E-02

    ------------------------------------------------
       NWT REQUIRED            7 OUTER ITERATIONS 
       AND A TOTAL OF          7 INNER ITERATIONS.
    ------------------------------------------------

 OUTPUT CONTROL FOR STRESS PERIOD    3   TIME STEP    8
    PRINT BUDGET
    SAVE HEAD FOR ALL LAYERS
 SOLVING FOR ZETA FOR LAYER     1 ZONE     2

     711 UPPER PART EQS.       729 LOWER PART EQS.    BAND WIDTH + 1 =   39
 STRESS PERIOD=  3 TIMESTEP=  8 LAYER=  1 ZONE=  2 ACTIVE CELLS= 1440 NUMBER OF EQUATIONS=    1440
 SOLVING FOR ZETA FOR LAYER     2 ZONE     2

     633 UPPER PART EQS.       640 LOWER PART EQS.    BAND WIDTH + 1 =   34
 STRESS PERIOD=  3 TIMESTEP=  8 LAYER=  2 ZONE=  2 ACTIVE CELLS= 1273 NUMBER OF EQUATIONS=    1273
 UBUDSV SAVING "      ZETASRF  1" ON UNIT 55 AT TIME STEP  8, STRESS PERIOD    3


                      VOLUMETRIC SWI ZONE BUDGET FOR ENTIRE MODEL
                     AT END OF TIME STEP    8 IN STRESS PERIOD   3
                                      ZONE     1
  -----------------------------------------------------------------------------------

        CUMULATIVE VOLUMES      L**3       RATES FOR THIS TIME STEP      L**3/T
        ------------------                 ------------------------

              IN:                                      IN:
              ---                                      ---
             BOUNDARIES =   130561096.0000            BOUNDARIES =        1680.0000
          CONSTANT HEAD =           0.0000         CONSTANT HEAD =           0.0000
            ZONE CHANGE =     1061080.7500           ZONE CHANGE =         107.2610
       ZONE CHG TIP/TOE =      419442.0312      ZONE CHG TIP/TOE =           1.7018
            ZONE MIXING =           0.0000           ZONE MIXING =           0.0000

               TOTAL IN =   132041616.0000              TOTAL IN =        1788.9628

             OUT:                                     OUT:
             ----                                     ----
             BOUNDARIES =   113431872.0000            BOUNDARIES =        1775.3494
          CONSTANT HEAD =           0.0000         CONSTANT HEAD =           0.0000
            ZONE CHANGE =    18910960.0000           ZONE CHANGE =          12.0619
       ZONE CHG TIP/TOE =      430984.3125      ZONE CHG TIP/TOE =           1.6629
            ZONE MIXING =           0.0000           ZONE MIXING =           0.0000

              TOTAL OUT =   132773816.0000             TOTAL OUT =        1789.0741

               IN - OUT =     -732200.0000              IN - OUT =          -0.1113

    PERCENT DISCREPANCY =          -0.55     PERCENT DISCREPANCY =          -0.01



                      VOLUMETRIC SWI ZONE BUDGET FOR ENTIRE MODEL
                     AT END OF TIME STEP    8 IN STRESS PERIOD   3
                                      ZONE     2
  -----------------------------------------------------------------------------------

        CUMULATIVE VOLUMES      L**3       RATES FOR THIS TIME STEP      L**3/T
        ------------------                 ------------------------

              IN:                                      IN:
              ---                                      ---
             BOUNDARIES =      540395.2500            BOUNDARIES =         120.1683
          CONSTANT HEAD =           0.0000         CONSTANT HEAD =           0.0000
            ZONE CHANGE =    18869164.0000           ZONE CHANGE =          11.7637
       ZONE CHG TIP/TOE =     1169281.0000      ZONE CHG TIP/TOE =           1.6629
            ZONE MIXING =           0.0000           ZONE MIXING =           0.0000

               TOTAL IN =    20578840.0000              TOTAL IN =         133.5949

             OUT:                                     OUT:
             ----                                     ----
             BOUNDARIES =    17661366.0000            BOUNDARIES =          25.0000
          CONSTANT HEAD =           0.0000         CONSTANT HEAD =           0.0000
            ZONE CHANGE =     1799375.5000           ZONE CHANGE =         107.2610
       ZONE CHG TIP/TOE =      377650.3125      ZONE CHG TIP/TOE =           1.4036
            ZONE MIXING =           0.0000           ZONE MIXING =           0.0000

              TOTAL OUT =    19838392.0000             TOTAL OUT =         133.6645

               IN - OUT =      740448.0000              IN - OUT =      -6.9656E-02

    PERCENT DISCREPANCY =           3.66     PERCENT DISCREPANCY =          -0.05


 HEAD WILL BE SAVED ON UNIT   51 AT END OF TIME STEP    8, STRESS PERIOD    3
1
  VOLUMETRIC BUDGET FOR ENTIRE MODEL AT END OF TIME STEP    8, STRESS PERIOD   3
  ------------------------------------------------------------------------------

     CUMULATIVE VOLUMES      L**3       RATES FOR THIS TIME STEP      L**3/T
     ------------------                 ------------------------

           IN:                                      IN:
           ---                                      ---
             STORAGE =           0.0000               STORAGE =           0.0000
       CONSTANT HEAD =           0.0000         CONSTANT HEAD =           0.0000
               WELLS =   130566216.0000                 WELLS =        1681.0000
     HEAD DEP BOUNDS =      540395.2500       HEAD DEP BOUNDS =         120.1683
          SWIADDTOCH =           0.0000            SWIADDTOCH =           0.0000

            TOTAL IN =   131106608.0000              TOTAL IN =        1801.1682

          OUT:                                     OUT:
          ----                                     ----
             STORAGE =           0.0000               STORAGE =           0.0000
       CONSTANT HEAD =           0.0000         CONSTANT HEAD =           0.0000
               WELLS =     1175300.0000                 WELLS =         275.0000
     HEAD DEP BOUNDS =   129922560.0000       HEAD DEP BOUNDS =        1526.3494
          SWIADDTOCH =           0.0000            SWIADDTOCH =           0.0000

           TOTAL OUT =   131097856.0000             TOTAL OUT =        1801.3494

            IN - OUT =        8752.0000              IN - OUT =          -0.1812

 PERCENT DISCREPANCY =           0.01     PERCENT DISCREPANCY =          -0.01






         TIME SUMMARY AT END OF TIME STEP    8 IN STRESS PERIOD    3
                    SECONDS     MINUTES      HOURS       DAYS        YEARS
                    -----------------------------------------------------------
   TIME STEP LENGTH 3.15360E+06  52560.      876.00      36.500     9.99316E-02
 STRESS PERIOD TIME 2.52288E+07 4.20480E+05  7008.0      292.00     0.79945    
         TOTAL TIME 6.71086E+09 1.11848E+08 1.86413E+06  77672.      212.65    
1
 
 SOLVING FOR HEAD 
                                                   Max.-Head-Change                         Max.-Flux-Residual
  Residual-Control   Outer-Iter.   Inner-Iter.     Column Row Layer    Maximum-Head-Change  Column Row Layer    Maximum-Flux-Residual          L2-NORM 
          0                 1           1            36   31     2       0.2366271525E-02      36   31    2         0.1608766231E+01      0.1847910465E+01
          0                 2           1            34   32     2       0.2590673126E-04      33   33    2         0.8793659630E-02      0.3677344228E-01
          0                 3           1            42   35     1      -0.2002814667E-04      42   35    1        -0.1083747137E-02      0.1350403486E-01
          0                 4           1            37   31     2      -0.1462305078E-04      37   31    2        -0.1162667641E-02      0.1038345393E-01
          0                 5           1            39   29     2      -0.1170041125E-04      39   29    2        -0.9547969073E-03      0.9097775255E-02
          0                 6           1            37   31     2      -0.1211094381E-04      37   31    2        -0.7351385658E-03      0.8052249899E-02
          0                 7           1            39   29     2      -0.7810761172E-05      39   29    2        -0.7120989050E-03      0.7227975981E-02

    ------------------------------------------------
       NWT REQUIRED            7 OUTER ITERATIONS 
       AND A TOTAL OF          7 INNER ITERATIONS.
    ------------------------------------------------

 OUTPUT CONTROL FOR STRESS PERIOD    3   TIME STEP    9
    PRINT BUDGET
    SAVE HEAD FOR ALL LAYERS
 SOLVING FOR ZETA FOR LAYER     1 ZONE     2

     705 UPPER PART EQS.       723 LOWER PART EQS.    BAND WIDTH + 1 =   38
 STRESS PERIOD=  3 TIMESTEP=  9 LAYER=  1 ZONE=  2 ACTIVE CELLS= 1428 NUMBER OF EQUATIONS=    1428
 SOLVING FOR ZETA FOR LAYER     2 ZONE     2

     633 UPPER PART EQS.       640 LOWER PART EQS.    BAND WIDTH + 1 =   34
 STRESS PERIOD=  3 TIMESTEP=  9 LAYER=  2 ZONE=  2 ACTIVE CELLS= 1273 NUMBER OF EQUATIONS=    1273
 UBUDSV SAVING "      ZETASRF  1" ON UNIT 55 AT TIME STEP  9, STRESS PERIOD    3


                      VOLUMETRIC SWI ZONE BUDGET FOR ENTIRE MODEL
                     AT END OF TIME STEP    9 IN STRESS PERIOD   3
                                      ZONE     1
  -----------------------------------------------------------------------------------

        CUMULATIVE VOLUMES      L**3       RATES FOR THIS TIME STEP      L**3/T
        ------------------                 ------------------------

              IN:                                      IN:
              ---                                      ---
             BOUNDARIES =   130622416.0000            BOUNDARIES =        1680.0000
          CONSTANT HEAD =           0.0000         CONSTANT HEAD =           0.0000
            ZONE CHANGE =     1064955.0000           ZONE CHANGE =         106.1430
       ZONE CHG TIP/TOE =      419570.1875      ZONE CHG TIP/TOE =           3.5114
            ZONE MIXING =           0.0000           ZONE MIXING =           0.0000

               TOTAL IN =   132106936.0000              TOTAL IN =        1789.6543

             OUT:                                     OUT:
             ----                                     ----
             BOUNDARIES =   113496672.0000            BOUNDARIES =        1775.4154
          CONSTANT HEAD =           0.0000         CONSTANT HEAD =           0.0000
            ZONE CHANGE =    18911358.0000           ZONE CHANGE =          10.9194
       ZONE CHG TIP/TOE =      431124.9688      ZONE CHG TIP/TOE =           3.8539
            ZONE MIXING =           0.0000           ZONE MIXING =           0.0000

              TOTAL OUT =   132839160.0000             TOTAL OUT =        1790.1887

               IN - OUT =     -732224.0000              IN - OUT =          -0.5344

    PERCENT DISCREPANCY =          -0.55     PERCENT DISCREPANCY =          -0.03



                      VOLUMETRIC SWI ZONE BUDGET FOR ENTIRE MODEL
                     AT END OF TIME STEP    9 IN STRESS PERIOD   3
                                      ZONE     2
  -----------------------------------------------------------------------------------

        CUMULATIVE VOLUMES      L**3       RATES FOR THIS TIME STEP      L**3/T
        ------------------                 ------------------------

              IN:                                      IN:
              ---                                      ---
             BOUNDARIES =      544782.0000            BOUNDARIES =         120.1855
          CONSTANT HEAD =           0.0000         CONSTANT HEAD =           0.0000
            ZONE CHANGE =    18869560.0000           ZONE CHANGE =          10.8420
       ZONE CHG TIP/TOE =     1169421.6250      ZONE CHG TIP/TOE =           3.8539
            ZONE MIXING =           0.0000           ZONE MIXING =           0.0000

               TOTAL IN =    20583764.0000              TOTAL IN =         134.8814

             OUT:                                     OUT:
             ----                                     ----
             BOUNDARIES =    17662278.0000            BOUNDARIES =          25.0000
          CONSTANT HEAD =           0.0000         CONSTANT HEAD =           0.0000
            ZONE CHANGE =     1803249.7500           ZONE CHANGE =         106.1430
       ZONE CHG TIP/TOE =      377775.6562      ZONE CHG TIP/TOE =           3.4340
            ZONE MIXING =           0.0000           ZONE MIXING =           0.0000

              TOTAL OUT =    19843304.0000             TOTAL OUT =         134.5770

               IN - OUT =      740460.0000              IN - OUT =           0.3044

    PERCENT DISCREPANCY =           3.66     PERCENT DISCREPANCY =           0.23


 HEAD WILL BE SAVED ON UNIT   51 AT END OF TIME STEP    9, STRESS PERIOD    3
1
  VOLUMETRIC BUDGET FOR ENTIRE MODEL AT END OF TIME STEP    9, STRESS PERIOD   3
  ------------------------------------------------------------------------------

     CUMULATIVE VOLUMES      L**3       RATES FOR THIS TIME STEP      L**3/T
     ------------------                 ------------------------

           IN:                                      IN:
           ---                                      ---
             STORAGE =           0.0000               STORAGE =           0.0000
       CONSTANT HEAD =           0.0000         CONSTANT HEAD =           0.0000
               WELLS =   130627576.0000                 WELLS =        1681.0000
     HEAD DEP BOUNDS =      544782.0000       HEAD DEP BOUNDS =         120.1855
          SWIADDTOCH =           0.0000            SWIADDTOCH =           0.0000

            TOTAL IN =   131172360.0000              TOTAL IN =        1801.1854

          OUT:                                     OUT:
          ----                                     ----
             STORAGE =           0.0000               STORAGE =           0.0000
       CONSTANT HEAD =           0.0000         CONSTANT HEAD =           0.0000
               WELLS =     1185337.5000                 WELLS =         275.0000
     HEAD DEP BOUNDS =   129978272.0000       HEAD DEP BOUNDS =        1526.4154
          SWIADDTOCH =           0.0000            SWIADDTOCH =           0.0000

           TOTAL OUT =   131163608.0000             TOTAL OUT =        1801.4154

            IN - OUT =        8752.0000              IN - OUT =          -0.2300

 PERCENT DISCREPANCY =           0.01     PERCENT DISCREPANCY =          -0.01






         TIME SUMMARY AT END OF TIME STEP    9 IN STRESS PERIOD    3
                    SECONDS     MINUTES      HOURS       DAYS        YEARS
                    -----------------------------------------------------------
   TIME STEP LENGTH 3.15360E+06  52560.      876.00      36.500     9.99316E-02
 STRESS PERIOD TIME 2.83824E+07 4.73040E+05  7884.0      328.50     0.89938    
         TOTAL TIME 6.71401E+09 1.11900E+08 1.86500E+06  77708.      212.75    
1
 
 SOLVING FOR HEAD 
                                                   Max.-Head-Change                         Max.-Flux-Residual
  Residual-Control   Outer-Iter.   Inner-Iter.     Column Row Layer    Maximum-Head-Change  Column Row Layer    Maximum-Flux-Residual          L2-NORM 
          0                 1           1            36   31     2       0.2250002464E-02      36   31    2         0.1536186684E+01      0.1753287565E+01
          0                 2           1            44   31     1      -0.3876089907E-04      33   33    2         0.8135733618E-02      0.4318767579E-01
          0                 3           1            42   32     2      -0.3158734511E-04      39   29    2        -0.1896077827E-02      0.1791693635E-01
          0                 4           1            37   31     2      -0.2061238762E-04      37   31    2        -0.1576862850E-02      0.1363421659E-01
          0                 5           1            40   30     2      -0.1736082000E-04      39   29    2        -0.1429317433E-02      0.1170806906E-01
          0                 6           1            37   31     2      -0.1523311805E-04      37   31    2        -0.9891134908E-03      0.1017951571E-01
          0                 7           1            40   30     2      -0.1129706251E-04      39   29    2        -0.9720371646E-03      0.8990818146E-02
          0                 8           1            37   31     2      -0.1185064440E-04      37   31    2        -0.6996472334E-03      0.7917186725E-02
          0                 9           1            40   30     2      -0.8118676542E-05      39   29    2        -0.6970685250E-03      0.7116607492E-02

    ------------------------------------------------
       NWT REQUIRED            9 OUTER ITERATIONS 
       AND A TOTAL OF          9 INNER ITERATIONS.
    ------------------------------------------------

 OUTPUT CONTROL FOR STRESS PERIOD    3   TIME STEP   10
    PRINT BUDGET
    SAVE HEAD FOR ALL LAYERS
 SOLVING FOR ZETA FOR LAYER     1 ZONE     2

     711 UPPER PART EQS.       725 LOWER PART EQS.    BAND WIDTH + 1 =   34
 STRESS PERIOD=  3 TIMESTEP= 10 LAYER=  1 ZONE=  2 ACTIVE CELLS= 1436 NUMBER OF EQUATIONS=    1436
 SOLVING FOR ZETA FOR LAYER     2 ZONE     2

     633 UPPER PART EQS.       640 LOWER PART EQS.    BAND WIDTH + 1 =   34
 STRESS PERIOD=  3 TIMESTEP= 10 LAYER=  2 ZONE=  2 ACTIVE CELLS= 1273 NUMBER OF EQUATIONS=    1273
 UBUDSV SAVING "      ZETASRF  1" ON UNIT 55 AT TIME STEP 10, STRESS PERIOD    3


                      VOLUMETRIC SWI ZONE BUDGET FOR ENTIRE MODEL
                     AT END OF TIME STEP   10 IN STRESS PERIOD   3
                                      ZONE     1
  -----------------------------------------------------------------------------------

        CUMULATIVE VOLUMES      L**3       RATES FOR THIS TIME STEP      L**3/T
        ------------------                 ------------------------

              IN:                                      IN:
              ---                                      ---
             BOUNDARIES =   130683736.0000            BOUNDARIES =        1680.0000
          CONSTANT HEAD =           0.0000         CONSTANT HEAD =           0.0000
            ZONE CHANGE =     1068828.1250           ZONE CHANGE =         106.1137
       ZONE CHG TIP/TOE =      419675.7812      ZONE CHG TIP/TOE =           2.8927
            ZONE MIXING =           0.0000           ZONE MIXING =           0.0000

               TOTAL IN =   132172240.0000              TOTAL IN =        1789.0065

             OUT:                                     OUT:
             ----                                     ----
             BOUNDARIES =   113561472.0000            BOUNDARIES =        1775.4430
          CONSTANT HEAD =           0.0000         CONSTANT HEAD =           0.0000
            ZONE CHANGE =    18911754.0000           ZONE CHANGE =          10.8589
       ZONE CHG TIP/TOE =      431230.5625      ZONE CHG TIP/TOE =           2.8927
            ZONE MIXING =           0.0000           ZONE MIXING =           0.0000

              TOTAL OUT =   132904456.0000             TOTAL OUT =        1789.1946

               IN - OUT =     -732216.0000              IN - OUT =          -0.1881

    PERCENT DISCREPANCY =          -0.55     PERCENT DISCREPANCY =          -0.01



                      VOLUMETRIC SWI ZONE BUDGET FOR ENTIRE MODEL
                     AT END OF TIME STEP   10 IN STRESS PERIOD   3
                                      ZONE     2
  -----------------------------------------------------------------------------------

        CUMULATIVE VOLUMES      L**3       RATES FOR THIS TIME STEP      L**3/T
        ------------------                 ------------------------

              IN:                                      IN:
              ---                                      ---
             BOUNDARIES =      549169.8750            BOUNDARIES =         120.2149
          CONSTANT HEAD =           0.0000         CONSTANT HEAD =           0.0000
            ZONE CHANGE =    18869940.0000           ZONE CHANGE =          10.4018
       ZONE CHG TIP/TOE =     1169527.2500      ZONE CHG TIP/TOE =           2.8927
            ZONE MIXING =           0.0000           ZONE MIXING =           0.0000

               TOTAL IN =    20588638.0000              TOTAL IN =         133.5094

             OUT:                                     OUT:
             ----                                     ----
             BOUNDARIES =    17663190.0000            BOUNDARIES =          25.0000
          CONSTANT HEAD =           0.0000         CONSTANT HEAD =           0.0000
            ZONE CHANGE =     1807122.8750           ZONE CHANGE =         106.1137
       ZONE CHG TIP/TOE =      377864.5625      ZONE CHG TIP/TOE =           2.4356
            ZONE MIXING =           0.0000           ZONE MIXING =           0.0000

              TOTAL OUT =    19848176.0000             TOTAL OUT =         133.5493

               IN - OUT =      740462.0000              IN - OUT =      -3.9978E-02

    PERCENT DISCREPANCY =           3.66     PERCENT DISCREPANCY =          -0.03


 HEAD WILL BE SAVED ON UNIT   51 AT END OF TIME STEP   10, STRESS PERIOD    3
1
  VOLUMETRIC BUDGET FOR ENTIRE MODEL AT END OF TIME STEP   10, STRESS PERIOD   3
  ------------------------------------------------------------------------------

     CUMULATIVE VOLUMES      L**3       RATES FOR THIS TIME STEP      L**3/T
     ------------------                 ------------------------

           IN:                                      IN:
           ---                                      ---
             STORAGE =           0.0000               STORAGE =           0.0000
       CONSTANT HEAD =           0.0000         CONSTANT HEAD =           0.0000
               WELLS =   130688936.0000                 WELLS =        1681.0000
     HEAD DEP BOUNDS =      549169.8750       HEAD DEP BOUNDS =         120.2149
          SWIADDTOCH =           0.0000            SWIADDTOCH =           0.0000

            TOTAL IN =   131238104.0000              TOTAL IN =        1801.2148

          OUT:                                     OUT:
          ----                                     ----
             STORAGE =           0.0000               STORAGE =           0.0000
       CONSTANT HEAD =           0.0000         CONSTANT HEAD =           0.0000
               WELLS =     1195375.0000                 WELLS =         275.0000
     HEAD DEP BOUNDS =   130033984.0000       HEAD DEP BOUNDS =        1526.4430
          SWIADDTOCH =           0.0000            SWIADDTOCH =           0.0000

           TOTAL OUT =   131229360.0000             TOTAL OUT =        1801.4430

            IN - OUT =        8744.0000              IN - OUT =          -0.2281

 PERCENT DISCREPANCY =           0.01     PERCENT DISCREPANCY =          -0.01






         TIME SUMMARY AT END OF TIME STEP   10 IN STRESS PERIOD    3
                    SECONDS     MINUTES      HOURS       DAYS        YEARS
                    -----------------------------------------------------------
   TIME STEP LENGTH 3.15360E+06  52560.      876.00      36.500     9.99316E-02
 STRESS PERIOD TIME 3.15360E+07 5.25600E+05  8760.0      365.00     0.99932    
         TOTAL TIME 6.71717E+09 1.11953E+08 1.86588E+06  77745.      212.85    
1
 
 SOLVING FOR HEAD 
                                                   Max.-Head-Change                         Max.-Flux-Residual
  Residual-Control   Outer-Iter.   Inner-Iter.     Column Row Layer    Maximum-Head-Change  Column Row Layer    Maximum-Flux-Residual          L2-NORM 
          0                 1           1            36   31     2       0.2134939706E-02      36   31    2         0.1460973904E+01      0.1747729105E+01
          0                 2           1            34   32     2       0.2181775234E-04      33   33    2         0.7630322596E-02      0.3884898874E-01
          0                 3           1            43   32     1      -0.1544602357E-04      44   33    1        -0.9410485950E-03      0.1268357175E-01
          0                 4           1            37   31     2      -0.1203203802E-04      37   31    2        -0.9150320338E-03      0.9995436631E-02
          0                 5           1            33   33     2      -0.9959875552E-05      39   29    2        -0.7386928366E-03      0.8886999872E-02

    ------------------------------------------------
       NWT REQUIRED            5 OUTER ITERATIONS 
       AND A TOTAL OF          5 INNER ITERATIONS.
    ------------------------------------------------

 OUTPUT CONTROL FOR STRESS PERIOD    3   TIME STEP   11
    SAVE HEAD FOR ALL LAYERS
 SOLVING FOR ZETA FOR LAYER     1 ZONE     2

     706 UPPER PART EQS.       721 LOWER PART EQS.    BAND WIDTH + 1 =   35
 STRESS PERIOD=  3 TIMESTEP= 11 LAYER=  1 ZONE=  2 ACTIVE CELLS= 1427 NUMBER OF EQUATIONS=    1427
 SOLVING FOR ZETA FOR LAYER     2 ZONE     2

     633 UPPER PART EQS.       640 LOWER PART EQS.    BAND WIDTH + 1 =   34
 STRESS PERIOD=  3 TIMESTEP= 11 LAYER=  2 ZONE=  2 ACTIVE CELLS= 1273 NUMBER OF EQUATIONS=    1273
 UBUDSV SAVING "      ZETASRF  1" ON UNIT 55 AT TIME STEP 11, STRESS PERIOD    3

 HEAD WILL BE SAVED ON UNIT   51 AT END OF TIME STEP   11, STRESS PERIOD    3
 
 SOLVING FOR HEAD 
                                                   Max.-Head-Change                         Max.-Flux-Residual
  Residual-Control   Outer-Iter.   Inner-Iter.     Column Row Layer    Maximum-Head-Change  Column Row Layer    Maximum-Flux-Residual          L2-NORM 
          0                 1           1            36   31     2       0.2019342680E-02      36   31    2         0.1384282550E+01      0.1682923652E+01
          0                 2           1            45   32     1      -0.1971836668E-04      34   32    2         0.7114133900E-02      0.3481827267E-01
          0                 3           1            42   35     1      -0.2068681638E-04      43   34    1        -0.1092669251E-02      0.1313291261E-01
          0                 4           1            37   31     2      -0.1500270443E-04      37   31    2        -0.1152947829E-02      0.1053172988E-01
          0                 5           1            39   29     2      -0.1235250142E-04      39   29    2        -0.8485453779E-03      0.9251219570E-02
          0                 6           1            37   31     2      -0.1129155252E-04      39   30    1        -0.7450111205E-03      0.8249949766E-02
          0                 7           1            34   34     2      -0.8556470067E-05      39   30    1        -0.6317400792E-03      0.7378422735E-02

    ------------------------------------------------
       NWT REQUIRED            7 OUTER ITERATIONS 
       AND A TOTAL OF          7 INNER ITERATIONS.
    ------------------------------------------------

 OUTPUT CONTROL FOR STRESS PERIOD    3   TIME STEP   12
    SAVE HEAD FOR ALL LAYERS
 SOLVING FOR ZETA FOR LAYER     1 ZONE     2

     709 UPPER PART EQS.       723 LOWER PART EQS.    BAND WIDTH + 1 =   34
 STRESS PERIOD=  3 TIMESTEP= 12 LAYER=  1 ZONE=  2 ACTIVE CELLS= 1432 NUMBER OF EQUATIONS=    1432
 SOLVING FOR ZETA FOR LAYER     2 ZONE     2

     633 UPPER PART EQS.       640 LOWER PART EQS.    BAND WIDTH + 1 =   34
 STRESS PERIOD=  3 TIMESTEP= 12 LAYER=  2 ZONE=  2 ACTIVE CELLS= 1273 NUMBER OF EQUATIONS=    1273
 UBUDSV SAVING "      ZETASRF  1" ON UNIT 55 AT TIME STEP 12, STRESS PERIOD    3

 HEAD WILL BE SAVED ON UNIT   51 AT END OF TIME STEP   12, STRESS PERIOD    3
 
 SOLVING FOR HEAD 
                                                   Max.-Head-Change                         Max.-Flux-Residual
  Residual-Control   Outer-Iter.   Inner-Iter.     Column Row Layer    Maximum-Head-Change  Column Row Layer    Maximum-Flux-Residual          L2-NORM 
          0                 1           1            36   31     2       0.1906522269E-02      36   31    2         0.1307415424E+01      0.1666868469E+01
          0                 2           1            34   32     2       0.1894693420E-04      34   32    2         0.6766724346E-02      0.3447483763E-01
          0                 3           1            42   35     1      -0.1944554624E-04      42   35    1        -0.1022814928E-02      0.1236919710E-01
          0                 4           1            37   31     2      -0.1428293574E-04      37   31    2        -0.1079461194E-02      0.9463542818E-02
          0                 5           1            39   29     2      -0.1130653012E-04      39   29    2        -0.8083421115E-03      0.8109143356E-02
          0                 6           1            37   31     2      -0.1039016387E-04      37   31    2        -0.6767340338E-03      0.7057542642E-02
          0                 7           1            39   29     2      -0.7609226854E-05      39   29    2        -0.5754369860E-03      0.6212603269E-02

    ------------------------------------------------
       NWT REQUIRED            7 OUTER ITERATIONS 
       AND A TOTAL OF          7 INNER ITERATIONS.
    ------------------------------------------------

 OUTPUT CONTROL FOR STRESS PERIOD    3   TIME STEP   13
    SAVE HEAD FOR ALL LAYERS
 SOLVING FOR ZETA FOR LAYER     1 ZONE     2

     709 UPPER PART EQS.       733 LOWER PART EQS.    BAND WIDTH + 1 =   43
 STRESS PERIOD=  3 TIMESTEP= 13 LAYER=  1 ZONE=  2 ACTIVE CELLS= 1442 NUMBER OF EQUATIONS=    1442
 SOLVING FOR ZETA FOR LAYER     2 ZONE     2

     633 UPPER PART EQS.       640 LOWER PART EQS.    BAND WIDTH + 1 =   34
 STRESS PERIOD=  3 TIMESTEP= 13 LAYER=  2 ZONE=  2 ACTIVE CELLS= 1273 NUMBER OF EQUATIONS=    1273
 UBUDSV SAVING "      ZETASRF  1" ON UNIT 55 AT TIME STEP 13, STRESS PERIOD    3

 HEAD WILL BE SAVED ON UNIT   51 AT END OF TIME STEP   13, STRESS PERIOD    3
 
 SOLVING FOR HEAD 
                                                   Max.-Head-Change                         Max.-Flux-Residual
  Residual-Control   Outer-Iter.   Inner-Iter.     Column Row Layer    Maximum-Head-Change  Column Row Layer    Maximum-Flux-Residual          L2-NORM 
          0                 1           1            36   31     2       0.1795236094E-02      36   31    2         0.1230979832E+01      0.1440716720E+01
          0                 2           1            44   31     1      -0.3385545933E-04      34   32    2         0.6364378963E-02      0.3844837044E-01
          0                 3           1            41   31     2      -0.2575994286E-04      39   29    2        -0.1584700435E-02      0.1593459492E-01
          0                 4           1            37   31     2      -0.1752366875E-04      36   32    2        -0.1308625155E-02      0.1209796452E-01
          0                 5           1            40   30     2      -0.1485604738E-04      39   29    2        -0.1210233612E-02      0.1043177690E-01
          0                 6           1            37   31     2      -0.1358968303E-04      37   31    2        -0.8460150889E-03      0.9179399520E-02
          0                 7           1            40   30     2      -0.9802996826E-05      39   29    2        -0.8495064047E-03      0.8128722749E-02

    ------------------------------------------------
       NWT REQUIRED            7 OUTER ITERATIONS 
       AND A TOTAL OF          7 INNER ITERATIONS.
    ------------------------------------------------

 OUTPUT CONTROL FOR STRESS PERIOD    3   TIME STEP   14
    SAVE HEAD FOR ALL LAYERS
 SOLVING FOR ZETA FOR LAYER     1 ZONE     2

     707 UPPER PART EQS.       727 LOWER PART EQS.    BAND WIDTH + 1 =   39
 STRESS PERIOD=  3 TIMESTEP= 14 LAYER=  1 ZONE=  2 ACTIVE CELLS= 1434 NUMBER OF EQUATIONS=    1434
 SOLVING FOR ZETA FOR LAYER     2 ZONE     2

     633 UPPER PART EQS.       640 LOWER PART EQS.    BAND WIDTH + 1 =   34
 STRESS PERIOD=  3 TIMESTEP= 14 LAYER=  2 ZONE=  2 ACTIVE CELLS= 1273 NUMBER OF EQUATIONS=    1273
 UBUDSV SAVING "      ZETASRF  1" ON UNIT 55 AT TIME STEP 14, STRESS PERIOD    3

 HEAD WILL BE SAVED ON UNIT   51 AT END OF TIME STEP   14, STRESS PERIOD    3
 
 SOLVING FOR HEAD 
                                                   Max.-Head-Change                         Max.-Flux-Residual
  Residual-Control   Outer-Iter.   Inner-Iter.     Column Row Layer    Maximum-Head-Change  Column Row Layer    Maximum-Flux-Residual          L2-NORM 
          0                 1           1            36   31     2       0.1686946303E-02      36   31    2         0.1155943352E+01      0.1492311890E+01
          0                 2           1            43   29     2      -0.2506638264E-04      34   32    2         0.6061735721E-02      0.3846075611E-01
          0                 3           1            41   31     2      -0.2031910533E-04      39   29    2        -0.1353193883E-02      0.1431323854E-01
          0                 4           1            37   31     2      -0.1546946694E-04      37   31    2        -0.1081010081E-02      0.1094964597E-01
          0                 5           1            39   29     2      -0.1244037142E-04      39   29    2        -0.1031301282E-02      0.9607534083E-02
          0                 6           1            37   31     2      -0.1203691095E-04      37   31    2        -0.7098621095E-03      0.8612091459E-02
          0                 7           1            34   32     2      -0.9014075866E-05      39   29    2        -0.7324252825E-03      0.7732522166E-02

    ------------------------------------------------
       NWT REQUIRED            7 OUTER ITERATIONS 
       AND A TOTAL OF          7 INNER ITERATIONS.
    ------------------------------------------------

 OUTPUT CONTROL FOR STRESS PERIOD    3   TIME STEP   15
    SAVE HEAD FOR ALL LAYERS
 SOLVING FOR ZETA FOR LAYER     1 ZONE     2

     702 UPPER PART EQS.       725 LOWER PART EQS.    BAND WIDTH + 1 =   42
 STRESS PERIOD=  3 TIMESTEP= 15 LAYER=  1 ZONE=  2 ACTIVE CELLS= 1427 NUMBER OF EQUATIONS=    1427
 SOLVING FOR ZETA FOR LAYER     2 ZONE     2

     633 UPPER PART EQS.       640 LOWER PART EQS.    BAND WIDTH + 1 =   34
 STRESS PERIOD=  3 TIMESTEP= 15 LAYER=  2 ZONE=  2 ACTIVE CELLS= 1273 NUMBER OF EQUATIONS=    1273
 UBUDSV SAVING "      ZETASRF  1" ON UNIT 55 AT TIME STEP 15, STRESS PERIOD    3

 HEAD WILL BE SAVED ON UNIT   51 AT END OF TIME STEP   15, STRESS PERIOD    3
 
 SOLVING FOR HEAD 
                                                   Max.-Head-Change                         Max.-Flux-Residual
  Residual-Control   Outer-Iter.   Inner-Iter.     Column Row Layer    Maximum-Head-Change  Column Row Layer    Maximum-Flux-Residual          L2-NORM 
          0                 1           1            36   31     2       0.1583752489E-02      36   31    2         0.1082768623E+01      0.1496504029E+01
          0                 2           1            44   27     1      -0.2097828580E-04      34   32    2         0.5834178485E-02      0.3242512048E-01
          0                 3           1            43   34     1      -0.2011773798E-04      43   34    1        -0.1114965535E-02      0.1171163551E-01
          0                 4           1            37   31     2      -0.1405117549E-04      37   31    2        -0.1054504453E-02      0.8885030596E-02
          0                 5           1            39   29     2      -0.1110944430E-04      39   29    2        -0.8997518925E-03      0.7531798376E-02
          0                 6           1            37   31     2      -0.9592253183E-05      37   31    2        -0.6393120995E-03      0.6517755011E-02

    ------------------------------------------------
       NWT REQUIRED            6 OUTER ITERATIONS 
       AND A TOTAL OF          6 INNER ITERATIONS.
    ------------------------------------------------

 OUTPUT CONTROL FOR STRESS PERIOD    3   TIME STEP   16
    SAVE HEAD FOR ALL LAYERS
 SOLVING FOR ZETA FOR LAYER     1 ZONE     2

     713 UPPER PART EQS.       733 LOWER PART EQS.    BAND WIDTH + 1 =   40
 STRESS PERIOD=  3 TIMESTEP= 16 LAYER=  1 ZONE=  2 ACTIVE CELLS= 1446 NUMBER OF EQUATIONS=    1446
 SOLVING FOR ZETA FOR LAYER     2 ZONE     2

     633 UPPER PART EQS.       640 LOWER PART EQS.    BAND WIDTH + 1 =   34
 STRESS PERIOD=  3 TIMESTEP= 16 LAYER=  2 ZONE=  2 ACTIVE CELLS= 1273 NUMBER OF EQUATIONS=    1273
 UBUDSV SAVING "      ZETASRF  1" ON UNIT 55 AT TIME STEP 16, STRESS PERIOD    3

 HEAD WILL BE SAVED ON UNIT   51 AT END OF TIME STEP   16, STRESS PERIOD    3
 
 SOLVING FOR HEAD 
                                                   Max.-Head-Change                         Max.-Flux-Residual
  Residual-Control   Outer-Iter.   Inner-Iter.     Column Row Layer    Maximum-Head-Change  Column Row Layer    Maximum-Flux-Residual          L2-NORM 
          0                 1           1            36   31     2       0.1483256546E-02      36   31    2         0.1012062870E+01      0.1246769013E+01
          0                 2           1            18   39     1      -0.1745800196E-04      34   32    2         0.5442219082E-02      0.3284611632E-01
          0                 3           1            42   35     1      -0.1556028585E-04      45   32    1        -0.1006516510E-02      0.1241107443E-01
          0                 4           1            37   31     2      -0.1142342105E-04      36   32    2        -0.8774050235E-03      0.9567840485E-02
          0                 5           1            39   29     2      -0.1094525354E-04      39   29    2        -0.8245628825E-03      0.8420374907E-02
          0                 6           1            37   31     2      -0.9241069034E-05      37   31    2        -0.6029138197E-03      0.7593102776E-02

    ------------------------------------------------
       NWT REQUIRED            6 OUTER ITERATIONS 
       AND A TOTAL OF          6 INNER ITERATIONS.
    ------------------------------------------------

 OUTPUT CONTROL FOR STRESS PERIOD    3   TIME STEP   17
    SAVE HEAD FOR ALL LAYERS
 SOLVING FOR ZETA FOR LAYER     1 ZONE     2

     711 UPPER PART EQS.       725 LOWER PART EQS.    BAND WIDTH + 1 =   34
 STRESS PERIOD=  3 TIMESTEP= 17 LAYER=  1 ZONE=  2 ACTIVE CELLS= 1436 NUMBER OF EQUATIONS=    1436
 SOLVING FOR ZETA FOR LAYER     2 ZONE     2

     633 UPPER PART EQS.       640 LOWER PART EQS.    BAND WIDTH + 1 =   34
 STRESS PERIOD=  3 TIMESTEP= 17 LAYER=  2 ZONE=  2 ACTIVE CELLS= 1273 NUMBER OF EQUATIONS=    1273
 UBUDSV SAVING "      ZETASRF  1" ON UNIT 55 AT TIME STEP 17, STRESS PERIOD    3

 HEAD WILL BE SAVED ON UNIT   51 AT END OF TIME STEP   17, STRESS PERIOD    3
 
 SOLVING FOR HEAD 
                                                   Max.-Head-Change                         Max.-Flux-Residual
  Residual-Control   Outer-Iter.   Inner-Iter.     Column Row Layer    Maximum-Head-Change  Column Row Layer    Maximum-Flux-Residual          L2-NORM 
          0                 1           1            36   31     2       0.1387404015E-02      36   31    2         0.9439794692E+00      0.1292346309E+01
          0                 2           1            44   31     1      -0.3387273092E-04      34   32    2         0.5205622790E-02      0.3791337524E-01
          0                 3           1            41   31     2      -0.2736494912E-04      39   29    2        -0.1564216103E-02      0.1611197081E-01
          0                 4           1            37   31     2      -0.1760648251E-04      37   31    2        -0.1280478467E-02      0.1205679004E-01
          0                 5           1            39   29     2      -0.1694828298E-04      39   29    2        -0.1121134997E-02      0.1027139712E-01
          0                 6           1            37   31     2      -0.1247049666E-04      37   31    2        -0.8421644172E-03      0.8974190961E-02
          0                 7           1            39   29     2      -0.1138701626E-04      39   29    2        -0.7974012175E-03      0.7877267290E-02
          0                 8           1            37   31     2      -0.9518122896E-05      37   31    2        -0.6115746544E-03      0.7026131584E-02

    ------------------------------------------------
       NWT REQUIRED            8 OUTER ITERATIONS 
       AND A TOTAL OF          8 INNER ITERATIONS.
    ------------------------------------------------

 OUTPUT CONTROL FOR STRESS PERIOD    3   TIME STEP   18
    SAVE HEAD FOR ALL LAYERS
 SOLVING FOR ZETA FOR LAYER     1 ZONE     2

     715 UPPER PART EQS.       723 LOWER PART EQS.    BAND WIDTH + 1 =   28
 STRESS PERIOD=  3 TIMESTEP= 18 LAYER=  1 ZONE=  2 ACTIVE CELLS= 1438 NUMBER OF EQUATIONS=    1438
 SOLVING FOR ZETA FOR LAYER     2 ZONE     2

     633 UPPER PART EQS.       640 LOWER PART EQS.    BAND WIDTH + 1 =   34
 STRESS PERIOD=  3 TIMESTEP= 18 LAYER=  2 ZONE=  2 ACTIVE CELLS= 1273 NUMBER OF EQUATIONS=    1273
 UBUDSV SAVING "      ZETASRF  1" ON UNIT 55 AT TIME STEP 18, STRESS PERIOD    3

 HEAD WILL BE SAVED ON UNIT   51 AT END OF TIME STEP   18, STRESS PERIOD    3
 
 SOLVING FOR HEAD 
                                                   Max.-Head-Change                         Max.-Flux-Residual
  Residual-Control   Outer-Iter.   Inner-Iter.     Column Row Layer    Maximum-Head-Change  Column Row Layer    Maximum-Flux-Residual          L2-NORM 
          0                 1           1            36   31     2       0.1295892670E-02      36   31    2         0.8788694979E+00      0.1220374635E+01
          0                 2           1            43   29     2      -0.1900659087E-04      34   32    2         0.4951492220E-02      0.3017399031E-01
          0                 3           1            42   35     1      -0.1762793528E-04      41   31    2        -0.9435461980E-03      0.1125980938E-01
          0                 4           1            37   31     2      -0.1289705504E-04      39   29    2        -0.9628983740E-03      0.8927721958E-02
          0                 5           1            39   29     2      -0.1028652196E-04      39   29    2        -0.9572967527E-03      0.7828753697E-02
          0                 6           1            37   31     2      -0.9557884072E-05      39   29    2        -0.6191378596E-03      0.6997290094E-02

    ------------------------------------------------
       NWT REQUIRED            6 OUTER ITERATIONS 
       AND A TOTAL OF          6 INNER ITERATIONS.
    ------------------------------------------------

 OUTPUT CONTROL FOR STRESS PERIOD    3   TIME STEP   19
    SAVE HEAD FOR ALL LAYERS
 SOLVING FOR ZETA FOR LAYER     1 ZONE     2

     704 UPPER PART EQS.       729 LOWER PART EQS.    BAND WIDTH + 1 =   45
 STRESS PERIOD=  3 TIMESTEP= 19 LAYER=  1 ZONE=  2 ACTIVE CELLS= 1433 NUMBER OF EQUATIONS=    1433
 SOLVING FOR ZETA FOR LAYER     2 ZONE     2

     633 UPPER PART EQS.       640 LOWER PART EQS.    BAND WIDTH + 1 =   34
 STRESS PERIOD=  3 TIMESTEP= 19 LAYER=  2 ZONE=  2 ACTIVE CELLS= 1273 NUMBER OF EQUATIONS=    1273
 UBUDSV SAVING "      ZETASRF  1" ON UNIT 55 AT TIME STEP 19, STRESS PERIOD    3

 HEAD WILL BE SAVED ON UNIT   51 AT END OF TIME STEP   19, STRESS PERIOD    3
 
 SOLVING FOR HEAD 
                                                   Max.-Head-Change                         Max.-Flux-Residual
  Residual-Control   Outer-Iter.   Inner-Iter.     Column Row Layer    Maximum-Head-Change  Column Row Layer    Maximum-Flux-Residual          L2-NORM 
          0                 1           1            36   31     2       0.1208723525E-02      36   31    2         0.8167893618E+00      0.1091971096E+01
          0                 2           1            44   25     1      -0.2567260502E-04      44   25    1        -0.5438910683E-02      0.3045375367E-01
          0                 3           1            42   35     1      -0.2031027945E-04      44   33    1        -0.1169712690E-02      0.1192306945E-01
          0                 4           1            37   31     2      -0.1329867270E-04      39   29    2        -0.9971138157E-03      0.8998756263E-02
          0                 5           1            39   29     2      -0.1141346800E-04      39   29    2        -0.1046359685E-02      0.7597862793E-02
          0                 6           1            37   31     2      -0.9270490359E-05      39   29    2        -0.6554878546E-03      0.6598570521E-02

    ------------------------------------------------
       NWT REQUIRED            6 OUTER ITERATIONS 
       AND A TOTAL OF          6 INNER ITERATIONS.
    ------------------------------------------------

 OUTPUT CONTROL FOR STRESS PERIOD    3   TIME STEP   20
    SAVE HEAD FOR ALL LAYERS
 SOLVING FOR ZETA FOR LAYER     1 ZONE     2

     717 UPPER PART EQS.       731 LOWER PART EQS.    BAND WIDTH + 1 =   34
 STRESS PERIOD=  3 TIMESTEP= 20 LAYER=  1 ZONE=  2 ACTIVE CELLS= 1448 NUMBER OF EQUATIONS=    1448
 SOLVING FOR ZETA FOR LAYER     2 ZONE     2

     633 UPPER PART EQS.       640 LOWER PART EQS.    BAND WIDTH + 1 =   34
 STRESS PERIOD=  3 TIMESTEP= 20 LAYER=  2 ZONE=  2 ACTIVE CELLS= 1273 NUMBER OF EQUATIONS=    1273
 UBUDSV SAVING "      ZETASRF  1" ON UNIT 55 AT TIME STEP 20, STRESS PERIOD    3

 HEAD WILL BE SAVED ON UNIT   51 AT END OF TIME STEP   20, STRESS PERIOD    3
 
 SOLVING FOR HEAD 
                                                   Max.-Head-Change                         Max.-Flux-Residual
  Residual-Control   Outer-Iter.   Inner-Iter.     Column Row Layer    Maximum-Head-Change  Column Row Layer    Maximum-Flux-Residual          L2-NORM 
          0                 1           1            36   31     2       0.1126159315E-02      36   31    2         0.7579866818E+00      0.1120768849E+01
          0                 2           1            43   28     1      -0.3281672904E-04      44   37    1        -0.5807674099E-02      0.3519420666E-01
          0                 3           1            41   31     2      -0.2656101524E-04      39   29    2        -0.1573878400E-02      0.1539158796E-01
          0                 4           1            37   31     2      -0.1621954170E-04      37   31    2        -0.1211475425E-02      0.1149393232E-01
          0                 5           1            39   29     2      -0.1665571351E-04      39   29    2        -0.9857398468E-03      0.9818405797E-02
          0                 6           1            37   31     2      -0.1143490153E-04      35   34    1        -0.8593214513E-03      0.8640376131E-02
          0                 7           1            39   29     2      -0.1112560152E-04      35   34    1        -0.7179394757E-03      0.7582886690E-02
          0                 8           1            37   31     2      -0.8794052358E-05      35   34    1        -0.6283504017E-03      0.6791349281E-02

    ------------------------------------------------
       NWT REQUIRED            8 OUTER ITERATIONS 
       AND A TOTAL OF          8 INNER ITERATIONS.
    ------------------------------------------------

 OUTPUT CONTROL FOR STRESS PERIOD    3   TIME STEP   21
    SAVE HEAD FOR ALL LAYERS
 SOLVING FOR ZETA FOR LAYER     1 ZONE     2

     713 UPPER PART EQS.       725 LOWER PART EQS.    BAND WIDTH + 1 =   33
 STRESS PERIOD=  3 TIMESTEP= 21 LAYER=  1 ZONE=  2 ACTIVE CELLS= 1438 NUMBER OF EQUATIONS=    1438
 SOLVING FOR ZETA FOR LAYER     2 ZONE     2

     633 UPPER PART EQS.       640 LOWER PART EQS.    BAND WIDTH + 1 =   34
 STRESS PERIOD=  3 TIMESTEP= 21 LAYER=  2 ZONE=  2 ACTIVE CELLS= 1273 NUMBER OF EQUATIONS=    1273
 UBUDSV SAVING "      ZETASRF  1" ON UNIT 55 AT TIME STEP 21, STRESS PERIOD    3

 HEAD WILL BE SAVED ON UNIT   51 AT END OF TIME STEP   21, STRESS PERIOD    3
 
 SOLVING FOR HEAD 
                                                   Max.-Head-Change                         Max.-Flux-Residual
  Residual-Control   Outer-Iter.   Inner-Iter.     Column Row Layer    Maximum-Head-Change  Column Row Layer    Maximum-Flux-Residual          L2-NORM 
          0                 1           1            36   31     2       0.1047857082E-02      36   31    2         0.7023978233E+00      0.1226241430E+01
          0                 2           1            44   33     1      -0.2303510878E-04      36   15    1         0.5969702330E-02      0.3764644086E-01
          0                 3           1            41   34     1      -0.1685928771E-04      46   31    1        -0.1028376700E-02      0.1275737709E-01
          0                 4           1            37   31     2      -0.1273507476E-04      39   29    2        -0.9701968333E-03      0.9722370330E-02
          0                 5           1            39   29     2      -0.1113918797E-04      39   29    2        -0.9962413486E-03      0.8455653541E-02
          0                 6           1            37   31     2      -0.9731520905E-05      39   29    2        -0.7079406216E-03      0.7531735032E-02

    ------------------------------------------------
       NWT REQUIRED            6 OUTER ITERATIONS 
       AND A TOTAL OF          6 INNER ITERATIONS.
    ------------------------------------------------

 OUTPUT CONTROL FOR STRESS PERIOD    3   TIME STEP   22
    SAVE HEAD FOR ALL LAYERS
 SOLVING FOR ZETA FOR LAYER     1 ZONE     2

     717 UPPER PART EQS.       727 LOWER PART EQS.    BAND WIDTH + 1 =   31
 STRESS PERIOD=  3 TIMESTEP= 22 LAYER=  1 ZONE=  2 ACTIVE CELLS= 1444 NUMBER OF EQUATIONS=    1444
 SOLVING FOR ZETA FOR LAYER     2 ZONE     2

     633 UPPER PART EQS.       640 LOWER PART EQS.    BAND WIDTH + 1 =   34
 STRESS PERIOD=  3 TIMESTEP= 22 LAYER=  2 ZONE=  2 ACTIVE CELLS= 1273 NUMBER OF EQUATIONS=    1273
 UBUDSV SAVING "      ZETASRF  1" ON UNIT 55 AT TIME STEP 22, STRESS PERIOD    3

 HEAD WILL BE SAVED ON UNIT   51 AT END OF TIME STEP   22, STRESS PERIOD    3
 
 SOLVING FOR HEAD 
                                                   Max.-Head-Change                         Max.-Flux-Residual
  Residual-Control   Outer-Iter.   Inner-Iter.     Column Row Layer    Maximum-Head-Change  Column Row Layer    Maximum-Flux-Residual          L2-NORM 
          0                 1           1            36   31     2       0.9735103428E-03      36   31    2         0.6499945757E+00      0.1162313165E+01
          0                 2           1            43   29     2      -0.1820430589E-04      36   15    1        -0.4756308915E-02      0.3425998232E-01
          0                 3           1            41   31     2      -0.1598606277E-04      39   29    2        -0.9674325942E-03      0.1163458147E-01
          0                 4           1            37   31     2      -0.1192063488E-04      38   30    2        -0.8800798037E-03      0.8757364003E-02
          0                 5           1            39   29     2      -0.1033911036E-04      38   30    2        -0.7207647429E-03      0.7693686444E-02
          0                 6           1            37   31     2      -0.8772102830E-05      35   34    1        -0.6499268124E-03      0.6935002983E-02

    ------------------------------------------------
       NWT REQUIRED            6 OUTER ITERATIONS 
       AND A TOTAL OF          6 INNER ITERATIONS.
    ------------------------------------------------

 OUTPUT CONTROL FOR STRESS PERIOD    3   TIME STEP   23
    SAVE HEAD FOR ALL LAYERS
 SOLVING FOR ZETA FOR LAYER     1 ZONE     2

     710 UPPER PART EQS.       725 LOWER PART EQS.    BAND WIDTH + 1 =   35
 STRESS PERIOD=  3 TIMESTEP= 23 LAYER=  1 ZONE=  2 ACTIVE CELLS= 1435 NUMBER OF EQUATIONS=    1435
 SOLVING FOR ZETA FOR LAYER     2 ZONE     2

     633 UPPER PART EQS.       640 LOWER PART EQS.    BAND WIDTH + 1 =   34
 STRESS PERIOD=  3 TIMESTEP= 23 LAYER=  2 ZONE=  2 ACTIVE CELLS= 1273 NUMBER OF EQUATIONS=    1273
 UBUDSV SAVING "      ZETASRF  1" ON UNIT 55 AT TIME STEP 23, STRESS PERIOD    3

 HEAD WILL BE SAVED ON UNIT   51 AT END OF TIME STEP   23, STRESS PERIOD    3
 
 SOLVING FOR HEAD 
                                                   Max.-Head-Change                         Max.-Flux-Residual
  Residual-Control   Outer-Iter.   Inner-Iter.     Column Row Layer    Maximum-Head-Change  Column Row Layer    Maximum-Flux-Residual          L2-NORM 
          0                 1           1            36   31     2       0.9042398787E-03      36   31    2         0.6007312536E+00      0.9809076015E+00
          0                 2           1            46   33     1      -0.1707232817E-04      34   32    2         0.3797338842E-02      0.2821948001E-01
          0                 3           1            42   35     1      -0.1744700429E-04      44   33    1        -0.8562796231E-03      0.1067518440E-01
          0                 4           1            37   31     2      -0.1114964789E-04      39   29    2        -0.9050312248E-03      0.8008799800E-02
          0                 5           1            39   29     2      -0.1078653762E-04      39   29    2        -0.8910347802E-03      0.6766365978E-02
          0                 6           1            37   31     2      -0.7401676284E-05      35   34    1        -0.5940786710E-03      0.5952389713E-02

    ------------------------------------------------
       NWT REQUIRED            6 OUTER ITERATIONS 
       AND A TOTAL OF          6 INNER ITERATIONS.
    ------------------------------------------------

 OUTPUT CONTROL FOR STRESS PERIOD    3   TIME STEP   24
    SAVE HEAD FOR ALL LAYERS
 SOLVING FOR ZETA FOR LAYER     1 ZONE     2

     719 UPPER PART EQS.       731 LOWER PART EQS.    BAND WIDTH + 1 =   32
 STRESS PERIOD=  3 TIMESTEP= 24 LAYER=  1 ZONE=  2 ACTIVE CELLS= 1450 NUMBER OF EQUATIONS=    1450
 SOLVING FOR ZETA FOR LAYER     2 ZONE     2

     633 UPPER PART EQS.       640 LOWER PART EQS.    BAND WIDTH + 1 =   34
 STRESS PERIOD=  3 TIMESTEP= 24 LAYER=  2 ZONE=  2 ACTIVE CELLS= 1273 NUMBER OF EQUATIONS=    1273
 UBUDSV SAVING "      ZETASRF  1" ON UNIT 55 AT TIME STEP 24, STRESS PERIOD    3

 HEAD WILL BE SAVED ON UNIT   51 AT END OF TIME STEP   24, STRESS PERIOD    3
 
 SOLVING FOR HEAD 
                                                   Max.-Head-Change                         Max.-Flux-Residual
  Residual-Control   Outer-Iter.   Inner-Iter.     Column Row Layer    Maximum-Head-Change  Column Row Layer    Maximum-Flux-Residual          L2-NORM 
          0                 1           1            36   31     2       0.8385483580E-03      36   31    2         0.5545654773E+00      0.8042739108E+00
          0                 2           1            44   31     1      -0.1978625153E-04      19   48    1         0.4314854722E-02      0.2750544113E-01
          0                 3           1            42   35     1      -0.1932955144E-04      39   29    2        -0.1096190166E-02      0.1162923011E-01
          0                 4           1            37   31     2      -0.1238013223E-04      37   31    2        -0.9382190371E-03      0.8666466228E-02
          0                 5           1            39   29     2      -0.1250967438E-04      39   29    2        -0.7539421114E-03      0.7284463892E-02
          0                 6           1            37   31     2      -0.8433854860E-05      35   34    1        -0.6518237311E-03      0.6352578459E-02

    ------------------------------------------------
       NWT REQUIRED            6 OUTER ITERATIONS 
       AND A TOTAL OF          6 INNER ITERATIONS.
    ------------------------------------------------

 OUTPUT CONTROL FOR STRESS PERIOD    3   TIME STEP   25
    SAVE HEAD FOR ALL LAYERS
 SOLVING FOR ZETA FOR LAYER     1 ZONE     2

     713 UPPER PART EQS.       733 LOWER PART EQS.    BAND WIDTH + 1 =   40
 STRESS PERIOD=  3 TIMESTEP= 25 LAYER=  1 ZONE=  2 ACTIVE CELLS= 1446 NUMBER OF EQUATIONS=    1446
 SOLVING FOR ZETA FOR LAYER     2 ZONE     2

     633 UPPER PART EQS.       640 LOWER PART EQS.    BAND WIDTH + 1 =   34
 STRESS PERIOD=  3 TIMESTEP= 25 LAYER=  2 ZONE=  2 ACTIVE CELLS= 1273 NUMBER OF EQUATIONS=    1273
 UBUDSV SAVING "      ZETASRF  1" ON UNIT 55 AT TIME STEP 25, STRESS PERIOD    3

 HEAD WILL BE SAVED ON UNIT   51 AT END OF TIME STEP   25, STRESS PERIOD    3
 
 SOLVING FOR HEAD 
                                                   Max.-Head-Change                         Max.-Flux-Residual
  Residual-Control   Outer-Iter.   Inner-Iter.     Column Row Layer    Maximum-Head-Change  Column Row Layer    Maximum-Flux-Residual          L2-NORM 
          0                 1           1            36   31     2       0.7767669592E-03      36   31    2         0.5113965422E+00      0.8441699159E+00
          0                 2           1            44   31     1      -0.3703492461E-04      44   37    1        -0.5454902510E-02      0.3415474779E-01
          0                 3           1            41   31     2      -0.2910166919E-04      39   29    2        -0.1645813054E-02      0.1554695708E-01
          0                 4           1            37   31     2      -0.1623680341E-04      37   31    2        -0.1193256033E-02      0.1156229864E-01
          0                 5           1            39   29     2      -0.1780096844E-04      39   29    2        -0.9518457458E-03      0.9788777836E-02
          0                 6           1            37   31     2      -0.1055140664E-04      37   31    2        -0.7639046764E-03      0.8559003978E-02
          0                 7           1            39   29     2      -0.1220859256E-04      39   29    2        -0.6324699881E-03      0.7417220888E-02
          0                 8           1            37   31     2      -0.7728255790E-05      37   31    2        -0.5564679226E-03      0.6643230263E-02

    ------------------------------------------------
       NWT REQUIRED            8 OUTER ITERATIONS 
       AND A TOTAL OF          8 INNER ITERATIONS.
    ------------------------------------------------

 OUTPUT CONTROL FOR STRESS PERIOD    3   TIME STEP   26
    SAVE HEAD FOR ALL LAYERS
 SOLVING FOR ZETA FOR LAYER     1 ZONE     2

     719 UPPER PART EQS.       729 LOWER PART EQS.    BAND WIDTH + 1 =   31
 STRESS PERIOD=  3 TIMESTEP= 26 LAYER=  1 ZONE=  2 ACTIVE CELLS= 1448 NUMBER OF EQUATIONS=    1448
 SOLVING FOR ZETA FOR LAYER     2 ZONE     2

     633 UPPER PART EQS.       640 LOWER PART EQS.    BAND WIDTH + 1 =   34
 STRESS PERIOD=  3 TIMESTEP= 26 LAYER=  2 ZONE=  2 ACTIVE CELLS= 1273 NUMBER OF EQUATIONS=    1273
 UBUDSV SAVING "      ZETASRF  1" ON UNIT 55 AT TIME STEP 26, STRESS PERIOD    3

 HEAD WILL BE SAVED ON UNIT   51 AT END OF TIME STEP   26, STRESS PERIOD    3
 
 SOLVING FOR HEAD 
                                                   Max.-Head-Change                         Max.-Flux-Residual
  Residual-Control   Outer-Iter.   Inner-Iter.     Column Row Layer    Maximum-Head-Change  Column Row Layer    Maximum-Flux-Residual          L2-NORM 
          0                 1           1            36   31     2       0.7191929935E-03      36   31    2         0.4709194601E+00      0.1008486767E+01
          0                 2           1            43   32     1      -0.1938162279E-04      45   36    1        -0.4186954305E-02      0.3253635230E-01
          0                 3           1            41   31     2      -0.1687401327E-04      39   29    2        -0.9872016862E-03      0.1242597968E-01
          0                 4           1            37   31     2      -0.1134997816E-04      37   31    2        -0.8116512034E-03      0.9273905900E-02
          0                 5           1            39   29     2      -0.1173178072E-04      39   29    2        -0.6514726252E-03      0.8109592197E-02
          0                 6           1            37   31     2      -0.8407956240E-05      36   32    2        -0.5488762760E-03      0.7342321281E-02

    ------------------------------------------------
       NWT REQUIRED            6 OUTER ITERATIONS 
       AND A TOTAL OF          6 INNER ITERATIONS.
    ------------------------------------------------

 OUTPUT CONTROL FOR STRESS PERIOD    3   TIME STEP   27
    SAVE HEAD FOR ALL LAYERS
 SOLVING FOR ZETA FOR LAYER     1 ZONE     2

     708 UPPER PART EQS.       725 LOWER PART EQS.    BAND WIDTH + 1 =   37
 STRESS PERIOD=  3 TIMESTEP= 27 LAYER=  1 ZONE=  2 ACTIVE CELLS= 1433 NUMBER OF EQUATIONS=    1433
 SOLVING FOR ZETA FOR LAYER     2 ZONE     2

     633 UPPER PART EQS.       640 LOWER PART EQS.    BAND WIDTH + 1 =   34
 STRESS PERIOD=  3 TIMESTEP= 27 LAYER=  2 ZONE=  2 ACTIVE CELLS= 1273 NUMBER OF EQUATIONS=    1273
 UBUDSV SAVING "      ZETASRF  1" ON UNIT 55 AT TIME STEP 27, STRESS PERIOD    3

 HEAD WILL BE SAVED ON UNIT   51 AT END OF TIME STEP   27, STRESS PERIOD    3
 
 SOLVING FOR HEAD 
                                                   Max.-Head-Change                         Max.-Flux-Residual
  Residual-Control   Outer-Iter.   Inner-Iter.     Column Row Layer    Maximum-Head-Change  Column Row Layer    Maximum-Flux-Residual          L2-NORM 
          0                 1           1            36   31     2       0.6643816219E-03      36   31    2         0.4332670942E+00      0.1180055673E+01
          0                 2           1            46   33     1      -0.1763800375E-04       9   37    2         0.4854838147E-02      0.3141640683E-01
          0                 3           1            42   35     1      -0.1570812772E-04      42   35    1        -0.8269760352E-03      0.1031208672E-01
          0                 4           1            37   31     2      -0.1081911524E-04      37   31    2        -0.7099238191E-03      0.7666335759E-02
          0                 5           1            39   29     2      -0.1032201710E-04      33   32    1        -0.6181150976E-03      0.6510870022E-02
          0                 6           1            37   31     2      -0.7112638983E-05      33   32    1        -0.5052173116E-03      0.5718744763E-02

    ------------------------------------------------
       NWT REQUIRED            6 OUTER ITERATIONS 
       AND A TOTAL OF          6 INNER ITERATIONS.
    ------------------------------------------------

 OUTPUT CONTROL FOR STRESS PERIOD    3   TIME STEP   28
    SAVE HEAD FOR ALL LAYERS
 SOLVING FOR ZETA FOR LAYER     1 ZONE     2

     717 UPPER PART EQS.       733 LOWER PART EQS.    BAND WIDTH + 1 =   36
 STRESS PERIOD=  3 TIMESTEP= 28 LAYER=  1 ZONE=  2 ACTIVE CELLS= 1450 NUMBER OF EQUATIONS=    1450
 SOLVING FOR ZETA FOR LAYER     2 ZONE     2

     635 UPPER PART EQS.       640 LOWER PART EQS.    BAND WIDTH + 1 =   34
 STRESS PERIOD=  3 TIMESTEP= 28 LAYER=  2 ZONE=  2 ACTIVE CELLS= 1275 NUMBER OF EQUATIONS=    1275
 UBUDSV SAVING "      ZETASRF  1" ON UNIT 55 AT TIME STEP 28, STRESS PERIOD    3

 HEAD WILL BE SAVED ON UNIT   51 AT END OF TIME STEP   28, STRESS PERIOD    3
 
 SOLVING FOR HEAD 
                                                   Max.-Head-Change                         Max.-Flux-Residual
  Residual-Control   Outer-Iter.   Inner-Iter.     Column Row Layer    Maximum-Head-Change  Column Row Layer    Maximum-Flux-Residual          L2-NORM 
          0                 1           1            36   31     2       0.6137167356E-03      36   31    2         0.3980977163E+00      0.8038180207E+00
          0                 2           1            45   26     1      -0.1597549597E-04      12   23    1         0.3555381710E-02      0.2657723198E-01
          0                 3           1            42   33     1      -0.1625992951E-04      45   28    1        -0.7846214001E-03      0.1041850302E-01
          0                 4           1            37   31     2      -0.1018723111E-04      37   31    2        -0.7485538444E-03      0.7786516399E-02
          0                 5           1            39   29     2      -0.1077431670E-04      33   32    1        -0.6259847984E-03      0.6652157163E-02
          0                 6           1            37   31     2      -0.7059512967E-05      33   32    1        -0.5324921810E-03      0.5929531146E-02

    ------------------------------------------------
       NWT REQUIRED            6 OUTER ITERATIONS 
       AND A TOTAL OF          6 INNER ITERATIONS.
    ------------------------------------------------

 OUTPUT CONTROL FOR STRESS PERIOD    3   TIME STEP   29
    SAVE HEAD FOR ALL LAYERS
 SOLVING FOR ZETA FOR LAYER     1 ZONE     2

     717 UPPER PART EQS.       729 LOWER PART EQS.    BAND WIDTH + 1 =   33
 STRESS PERIOD=  3 TIMESTEP= 29 LAYER=  1 ZONE=  2 ACTIVE CELLS= 1446 NUMBER OF EQUATIONS=    1446
 SOLVING FOR ZETA FOR LAYER     2 ZONE     2

     635 UPPER PART EQS.       640 LOWER PART EQS.    BAND WIDTH + 1 =   34
 STRESS PERIOD=  3 TIMESTEP= 29 LAYER=  2 ZONE=  2 ACTIVE CELLS= 1275 NUMBER OF EQUATIONS=    1275
 UBUDSV SAVING "      ZETASRF  1" ON UNIT 55 AT TIME STEP 29, STRESS PERIOD    3

 HEAD WILL BE SAVED ON UNIT   51 AT END OF TIME STEP   29, STRESS PERIOD    3
 
 SOLVING FOR HEAD 
                                                   Max.-Head-Change                         Max.-Flux-Residual
  Residual-Control   Outer-Iter.   Inner-Iter.     Column Row Layer    Maximum-Head-Change  Column Row Layer    Maximum-Flux-Residual          L2-NORM 
          0                 1           1            36   31     2       0.5660251027E-03      36   31    2         0.3653983027E+00      0.6811433603E+00
          0                 2           1            44   31     1      -0.1934827738E-04      35   48    1        -0.4013264062E-02      0.2874848204E-01
          0                 3           1            41   36     1      -0.1986731596E-04      39   29    2        -0.1090546013E-02      0.1276922104E-01
          0                 4           1            37   31     2      -0.1221122541E-04      36   32    2        -0.8675047783E-03      0.9312965347E-02
          0                 5           1            39   29     2      -0.1365665360E-04      39   29    2        -0.7295860621E-03      0.7769885437E-02
          0                 6           1            37   31     2      -0.8134995210E-05      33   32    1        -0.5781445871E-03      0.6725240439E-02

    ------------------------------------------------
       NWT REQUIRED            6 OUTER ITERATIONS 
       AND A TOTAL OF          6 INNER ITERATIONS.
    ------------------------------------------------

 OUTPUT CONTROL FOR STRESS PERIOD    3   TIME STEP   30
    SAVE HEAD FOR ALL LAYERS
 SOLVING FOR ZETA FOR LAYER     1 ZONE     2

     717 UPPER PART EQS.       731 LOWER PART EQS.    BAND WIDTH + 1 =   34
 STRESS PERIOD=  3 TIMESTEP= 30 LAYER=  1 ZONE=  2 ACTIVE CELLS= 1448 NUMBER OF EQUATIONS=    1448
 SOLVING FOR ZETA FOR LAYER     2 ZONE     2

     635 UPPER PART EQS.       640 LOWER PART EQS.    BAND WIDTH + 1 =   34
 STRESS PERIOD=  3 TIMESTEP= 30 LAYER=  2 ZONE=  2 ACTIVE CELLS= 1275 NUMBER OF EQUATIONS=    1275
 UBUDSV SAVING "      ZETASRF  1" ON UNIT 55 AT TIME STEP 30, STRESS PERIOD    3

 HEAD WILL BE SAVED ON UNIT   51 AT END OF TIME STEP   30, STRESS PERIOD    3
 
 SOLVING FOR HEAD 
                                                   Max.-Head-Change                         Max.-Flux-Residual
  Residual-Control   Outer-Iter.   Inner-Iter.     Column Row Layer    Maximum-Head-Change  Column Row Layer    Maximum-Flux-Residual          L2-NORM 
          0                 1           1            36   31     2       0.5204070225E-03      36   31    2         0.3348948658E+00      0.1291773867E+01
          0                 2           1            44   31     1      -0.3642393270E-04      44   37    1        -0.5713271462E-02      0.4271220880E-01
          0                 3           1            41   31     2      -0.2899219030E-04      41   31    2        -0.1594973957E-02      0.1753181747E-01
          0                 4           1            37   31     2      -0.1632418550E-04      37   31    2        -0.1038603206E-02      0.1278650037E-01
          0                 5           1            39   29     2      -0.1807811726E-04      39   29    2        -0.8564320401E-03      0.1106124632E-01
          0                 6           1            37   31     2      -0.1110261415E-04      35   29    2        -0.7135503169E-03      0.9886932875E-02
          0                 7           1            39   29     2      -0.1285416056E-04      33   31    2        -0.6210280529E-03      0.8741716907E-02
          0                 8           1            37   31     2      -0.8377867127E-05      35   29    2        -0.5433472751E-03      0.7922417776E-02

    ------------------------------------------------
       NWT REQUIRED            8 OUTER ITERATIONS 
       AND A TOTAL OF          8 INNER ITERATIONS.
    ------------------------------------------------

 OUTPUT CONTROL FOR STRESS PERIOD    3   TIME STEP   31
    SAVE HEAD FOR ALL LAYERS
 SOLVING FOR ZETA FOR LAYER     1 ZONE     2

     709 UPPER PART EQS.       725 LOWER PART EQS.    BAND WIDTH + 1 =   36
 STRESS PERIOD=  3 TIMESTEP= 31 LAYER=  1 ZONE=  2 ACTIVE CELLS= 1434 NUMBER OF EQUATIONS=    1434
 SOLVING FOR ZETA FOR LAYER     2 ZONE     2

     635 UPPER PART EQS.       642 LOWER PART EQS.    BAND WIDTH + 1 =   34
 STRESS PERIOD=  3 TIMESTEP= 31 LAYER=  2 ZONE=  2 ACTIVE CELLS= 1277 NUMBER OF EQUATIONS=    1277
 UBUDSV SAVING "      ZETASRF  1" ON UNIT 55 AT TIME STEP 31, STRESS PERIOD    3

 HEAD WILL BE SAVED ON UNIT   51 AT END OF TIME STEP   31, STRESS PERIOD    3
 
 SOLVING FOR HEAD 
                                                   Max.-Head-Change                         Max.-Flux-Residual
  Residual-Control   Outer-Iter.   Inner-Iter.     Column Row Layer    Maximum-Head-Change  Column Row Layer    Maximum-Flux-Residual          L2-NORM 
          0                 1           1            36   31     2       0.4784352568E-03      36   31    2         0.3066015244E+00      0.1050434671E+01
          0                 2           1            43   32     1      -0.1773570239E-04      19   48    1         0.5252372897E-02      0.3264926500E-01
          0                 3           1            41   31     2      -0.1639030671E-04      41   31    2        -0.9122337067E-03      0.9728635957E-02
          0                 4           1            37   31     2      -0.1052299257E-04      37   31    2        -0.6583645825E-03      0.6814623350E-02
          0                 5           1            39   29     2      -0.9064215662E-05      33   31    2        -0.5357680668E-03      0.5551325672E-02

    ------------------------------------------------
       NWT REQUIRED            5 OUTER ITERATIONS 
       AND A TOTAL OF          5 INNER ITERATIONS.
    ------------------------------------------------

 OUTPUT CONTROL FOR STRESS PERIOD    3   TIME STEP   32
    SAVE HEAD FOR ALL LAYERS
 SOLVING FOR ZETA FOR LAYER     1 ZONE     2

     716 UPPER PART EQS.       733 LOWER PART EQS.    BAND WIDTH + 1 =   37
 STRESS PERIOD=  3 TIMESTEP= 32 LAYER=  1 ZONE=  2 ACTIVE CELLS= 1449 NUMBER OF EQUATIONS=    1449
 SOLVING FOR ZETA FOR LAYER     2 ZONE     2

     635 UPPER PART EQS.       642 LOWER PART EQS.    BAND WIDTH + 1 =   34
 STRESS PERIOD=  3 TIMESTEP= 32 LAYER=  2 ZONE=  2 ACTIVE CELLS= 1277 NUMBER OF EQUATIONS=    1277
 UBUDSV SAVING "      ZETASRF  1" ON UNIT 55 AT TIME STEP 32, STRESS PERIOD    3

 HEAD WILL BE SAVED ON UNIT   51 AT END OF TIME STEP   32, STRESS PERIOD    3
 
 SOLVING FOR HEAD 
                                                   Max.-Head-Change                         Max.-Flux-Residual
  Residual-Control   Outer-Iter.   Inner-Iter.     Column Row Layer    Maximum-Head-Change  Column Row Layer    Maximum-Flux-Residual          L2-NORM 
          0                 1           1            36   31     2       0.4390106300E-03      36   31    2         0.2801559567E+00      0.6267027613E+00
          0                 2           1            46   33     1      -0.1568827409E-04      46   35    1        -0.3300469436E-02      0.2532724750E-01
          0                 3           1            39   24     1      -0.1314990750E-04      49   32    1        -0.7748204064E-03      0.9886829646E-02
          0                 4           1            40   34     2      -0.7875297557E-05      45   31    2        -0.6321287934E-03      0.7122011497E-02

    ------------------------------------------------
       NWT REQUIRED            4 OUTER ITERATIONS 
       AND A TOTAL OF          4 INNER ITERATIONS.
    ------------------------------------------------

 OUTPUT CONTROL FOR STRESS PERIOD    3   TIME STEP   33
    SAVE HEAD FOR ALL LAYERS
 SOLVING FOR ZETA FOR LAYER     1 ZONE     2

     717 UPPER PART EQS.       725 LOWER PART EQS.    BAND WIDTH + 1 =   28
 STRESS PERIOD=  3 TIMESTEP= 33 LAYER=  1 ZONE=  2 ACTIVE CELLS= 1442 NUMBER OF EQUATIONS=    1442
 SOLVING FOR ZETA FOR LAYER     2 ZONE     2

     635 UPPER PART EQS.       642 LOWER PART EQS.    BAND WIDTH + 1 =   34
 STRESS PERIOD=  3 TIMESTEP= 33 LAYER=  2 ZONE=  2 ACTIVE CELLS= 1277 NUMBER OF EQUATIONS=    1277
 UBUDSV SAVING "      ZETASRF  1" ON UNIT 55 AT TIME STEP 33, STRESS PERIOD    3

 HEAD WILL BE SAVED ON UNIT   51 AT END OF TIME STEP   33, STRESS PERIOD    3
 
 SOLVING FOR HEAD 
                                                   Max.-Head-Change                         Max.-Flux-Residual
  Residual-Control   Outer-Iter.   Inner-Iter.     Column Row Layer    Maximum-Head-Change  Column Row Layer    Maximum-Flux-Residual          L2-NORM 
          0                 1           1            36   31     2       0.4019919816E-03      36   31    2         0.2557150722E+00      0.7738507385E+00
          0                 2           1            44   31     1      -0.1903671525E-04      18   39    1        -0.4344717634E-02      0.2963378877E-01
          0                 3           1            41   34     1      -0.2021926177E-04      39   29    2        -0.1027190086E-02      0.1284178240E-01
          0                 4           1            37   31     2      -0.1241146007E-04      36   32    2        -0.8000646548E-03      0.9531433383E-02
          0                 5           1            39   29     2      -0.1378304587E-04      33   31    2        -0.6982357465E-03      0.8130925063E-02
          0                 6           1            37   31     2      -0.8470126200E-05      34   30    2        -0.5450623474E-03      0.7131489150E-02

    ------------------------------------------------
       NWT REQUIRED            6 OUTER ITERATIONS 
       AND A TOTAL OF          6 INNER ITERATIONS.
    ------------------------------------------------

 OUTPUT CONTROL FOR STRESS PERIOD    3   TIME STEP   34
    SAVE HEAD FOR ALL LAYERS
 SOLVING FOR ZETA FOR LAYER     1 ZONE     2

     717 UPPER PART EQS.       735 LOWER PART EQS.    BAND WIDTH + 1 =   38
 STRESS PERIOD=  3 TIMESTEP= 34 LAYER=  1 ZONE=  2 ACTIVE CELLS= 1452 NUMBER OF EQUATIONS=    1452
 SOLVING FOR ZETA FOR LAYER     2 ZONE     2

     635 UPPER PART EQS.       641 LOWER PART EQS.    BAND WIDTH + 1 =   34
 STRESS PERIOD=  3 TIMESTEP= 34 LAYER=  2 ZONE=  2 ACTIVE CELLS= 1276 NUMBER OF EQUATIONS=    1276
 UBUDSV SAVING "      ZETASRF  1" ON UNIT 55 AT TIME STEP 34, STRESS PERIOD    3

 HEAD WILL BE SAVED ON UNIT   51 AT END OF TIME STEP   34, STRESS PERIOD    3
 
 SOLVING FOR HEAD 
                                                   Max.-Head-Change                         Max.-Flux-Residual
  Residual-Control   Outer-Iter.   Inner-Iter.     Column Row Layer    Maximum-Head-Change  Column Row Layer    Maximum-Flux-Residual          L2-NORM 
          0                 1           1            36   31     2       0.3674575423E-03      36   31    2         0.2328913808E+00      0.8682442229E+00
          0                 2           1            44   31     1      -0.1780897649E-04      12   41    1         0.3997786666E-02      0.2979643791E-01
          0                 3           1            41   31     2      -0.1824511293E-04      41   31    2        -0.9131713348E-03      0.1174200917E-01
          0                 4           1            37   31     2      -0.1125191738E-04      36   32    2        -0.7027562855E-03      0.8810870884E-02
          0                 5           1            39   29     2      -0.1123287052E-04      32   32    2        -0.7019918617E-03      0.7674727539E-02
          0                 6           1            37   31     2      -0.7977037068E-05      32   32    2        -0.5643862732E-03      0.6892553038E-02

    ------------------------------------------------
       NWT REQUIRED            6 OUTER ITERATIONS 
       AND A TOTAL OF          6 INNER ITERATIONS.
    ------------------------------------------------

 OUTPUT CONTROL FOR STRESS PERIOD    3   TIME STEP   35
    SAVE HEAD FOR ALL LAYERS
 SOLVING FOR ZETA FOR LAYER     1 ZONE     2

     711 UPPER PART EQS.       727 LOWER PART EQS.    BAND WIDTH + 1 =   36
 STRESS PERIOD=  3 TIMESTEP= 35 LAYER=  1 ZONE=  2 ACTIVE CELLS= 1438 NUMBER OF EQUATIONS=    1438
 SOLVING FOR ZETA FOR LAYER     2 ZONE     2

     635 UPPER PART EQS.       640 LOWER PART EQS.    BAND WIDTH + 1 =   33
 STRESS PERIOD=  3 TIMESTEP= 35 LAYER=  2 ZONE=  2 ACTIVE CELLS= 1275 NUMBER OF EQUATIONS=    1275
 UBUDSV SAVING "      ZETASRF  1" ON UNIT 55 AT TIME STEP 35, STRESS PERIOD    3

 HEAD WILL BE SAVED ON UNIT   51 AT END OF TIME STEP   35, STRESS PERIOD    3
 
 SOLVING FOR HEAD 
                                                   Max.-Head-Change                         Max.-Flux-Residual
  Residual-Control   Outer-Iter.   Inner-Iter.     Column Row Layer    Maximum-Head-Change  Column Row Layer    Maximum-Flux-Residual          L2-NORM 
          0                 1           1            36   31     2       0.3350166898E-03      36   31    2         0.2116712928E+00      0.8188537900E+00
          0                 2           1            44   31     1      -0.3671116891E-04      44   33    1        -0.4630502161E-02      0.3552899328E-01
          0                 3           1            41   31     2      -0.2961461225E-04      41   31    2        -0.1579833536E-02      0.1549478137E-01
          0                 4           1            37   31     2      -0.1541569240E-04      37   32    1        -0.9762701873E-03      0.1099010965E-01
          0                 5           1            40   30     2      -0.1647469476E-04      39   29    2        -0.8044550690E-03      0.8928674669E-02
          0                 6           1            37   31     2      -0.8985545783E-05      43   29    2        -0.6334880250E-03      0.7512740808E-02

    ------------------------------------------------
       NWT REQUIRED            6 OUTER ITERATIONS 
       AND A TOTAL OF          6 INNER ITERATIONS.
    ------------------------------------------------

 OUTPUT CONTROL FOR STRESS PERIOD    3   TIME STEP   36
    SAVE HEAD FOR ALL LAYERS
 SOLVING FOR ZETA FOR LAYER     1 ZONE     2

     717 UPPER PART EQS.       735 LOWER PART EQS.    BAND WIDTH + 1 =   38
 STRESS PERIOD=  3 TIMESTEP= 36 LAYER=  1 ZONE=  2 ACTIVE CELLS= 1452 NUMBER OF EQUATIONS=    1452
 SOLVING FOR ZETA FOR LAYER     2 ZONE     2

     635 UPPER PART EQS.       640 LOWER PART EQS.    BAND WIDTH + 1 =   33
 STRESS PERIOD=  3 TIMESTEP= 36 LAYER=  2 ZONE=  2 ACTIVE CELLS= 1275 NUMBER OF EQUATIONS=    1275
 UBUDSV SAVING "      ZETASRF  1" ON UNIT 55 AT TIME STEP 36, STRESS PERIOD    3

 HEAD WILL BE SAVED ON UNIT   51 AT END OF TIME STEP   36, STRESS PERIOD    3
 
 SOLVING FOR HEAD 
                                                   Max.-Head-Change                         Max.-Flux-Residual
  Residual-Control   Outer-Iter.   Inner-Iter.     Column Row Layer    Maximum-Head-Change  Column Row Layer    Maximum-Flux-Residual          L2-NORM 
          0                 1           1            36   31     2       0.3042563443E-03      47   25    1         0.2007615348E+00      0.8695792237E+00
          0                 2           1            44   29     1      -0.2696827386E-04      45   38    1        -0.4372583818E-02      0.3019108970E-01
          0                 3           1            41   31     2      -0.2260846658E-04      39   29    2        -0.1173176963E-02      0.1450006269E-01
          0                 4           1            37   31     2      -0.1332528659E-04      45   36    1        -0.9326627939E-03      0.1096285810E-01
          0                 5           1            39   29     2      -0.1609575185E-04      32   32    2        -0.8525157695E-03      0.9286795642E-02
          0                 6           1            37   31     2      -0.8940310493E-05      32   32    2        -0.7600086290E-03      0.8165677823E-02

    ------------------------------------------------
       NWT REQUIRED            6 OUTER ITERATIONS 
       AND A TOTAL OF          6 INNER ITERATIONS.
    ------------------------------------------------

 OUTPUT CONTROL FOR STRESS PERIOD    3   TIME STEP   37
    SAVE HEAD FOR ALL LAYERS
 SOLVING FOR ZETA FOR LAYER     1 ZONE     2

     712 UPPER PART EQS.       723 LOWER PART EQS.    BAND WIDTH + 1 =   31
 STRESS PERIOD=  3 TIMESTEP= 37 LAYER=  1 ZONE=  2 ACTIVE CELLS= 1435 NUMBER OF EQUATIONS=    1435
 SOLVING FOR ZETA FOR LAYER     2 ZONE     2

     635 UPPER PART EQS.       638 LOWER PART EQS.    BAND WIDTH + 1 =   32
 STRESS PERIOD=  3 TIMESTEP= 37 LAYER=  2 ZONE=  2 ACTIVE CELLS= 1273 NUMBER OF EQUATIONS=    1273
 UBUDSV SAVING "      ZETASRF  1" ON UNIT 55 AT TIME STEP 37, STRESS PERIOD    3

 HEAD WILL BE SAVED ON UNIT   51 AT END OF TIME STEP   37, STRESS PERIOD    3
 
 SOLVING FOR HEAD 
                                                   Max.-Head-Change                         Max.-Flux-Residual
  Residual-Control   Outer-Iter.   Inner-Iter.     Column Row Layer    Maximum-Head-Change  Column Row Layer    Maximum-Flux-Residual          L2-NORM 
          0                 1           1            22   15     1      -0.2958168715E-03      22   15    1        -0.2455970079E+00      0.9119184026E+00
          0                 2           1            46   35     1      -0.1373908678E-04      19   48    1        -0.4600351227E-02      0.2961321115E-01
          0                 3           1            36   38     2      -0.1170396814E-04      49   32    1        -0.6205590237E-03      0.9309802598E-02
          0                 4           1            33   34     1      -0.7490710946E-05      34   30    2        -0.4717328700E-03      0.7119927735E-02

    ------------------------------------------------
       NWT REQUIRED            4 OUTER ITERATIONS 
       AND A TOTAL OF          4 INNER ITERATIONS.
    ------------------------------------------------

 OUTPUT CONTROL FOR STRESS PERIOD    3   TIME STEP   38
    SAVE HEAD FOR ALL LAYERS
 SOLVING FOR ZETA FOR LAYER     1 ZONE     2

     719 UPPER PART EQS.       729 LOWER PART EQS.    BAND WIDTH + 1 =   31
 STRESS PERIOD=  3 TIMESTEP= 38 LAYER=  1 ZONE=  2 ACTIVE CELLS= 1448 NUMBER OF EQUATIONS=    1448
 SOLVING FOR ZETA FOR LAYER     2 ZONE     2

     635 UPPER PART EQS.       638 LOWER PART EQS.    BAND WIDTH + 1 =   32
 STRESS PERIOD=  3 TIMESTEP= 38 LAYER=  2 ZONE=  2 ACTIVE CELLS= 1273 NUMBER OF EQUATIONS=    1273
 UBUDSV SAVING "      ZETASRF  1" ON UNIT 55 AT TIME STEP 38, STRESS PERIOD    3

 HEAD WILL BE SAVED ON UNIT   51 AT END OF TIME STEP   38, STRESS PERIOD    3
 
 SOLVING FOR HEAD 
                                                   Max.-Head-Change                         Max.-Flux-Residual
  Residual-Control   Outer-Iter.   Inner-Iter.     Column Row Layer    Maximum-Head-Change  Column Row Layer    Maximum-Flux-Residual          L2-NORM 
          0                 1           1            36   31     2       0.2491665492E-03      22   15    1         0.2361785907E+00      0.8627748118E+00
          0                 2           1            44   31     1      -0.1680539837E-04      19   48    1         0.3652165724E-02      0.2691609841E-01
          0                 3           1            41   32     1      -0.1841257782E-04      41   31    2        -0.8689147947E-03      0.1124406243E-01
          0                 4           1            37   31     2      -0.1068621505E-04      37   31    2        -0.7236994485E-03      0.8456487804E-02
          0                 5           1            34   32     2      -0.1163066214E-04      39   29    2        -0.5300416987E-03      0.7318225854E-02
          0                 6           1            36   32     2      -0.7168042301E-05      35   29    2        -0.4628525268E-03      0.6550437745E-02

    ------------------------------------------------
       NWT REQUIRED            6 OUTER ITERATIONS 
       AND A TOTAL OF          6 INNER ITERATIONS.
    ------------------------------------------------

 OUTPUT CONTROL FOR STRESS PERIOD    3   TIME STEP   39
    SAVE HEAD FOR ALL LAYERS
 SOLVING FOR ZETA FOR LAYER     1 ZONE     2

     713 UPPER PART EQS.       727 LOWER PART EQS.    BAND WIDTH + 1 =   34
 STRESS PERIOD=  3 TIMESTEP= 39 LAYER=  1 ZONE=  2 ACTIVE CELLS= 1440 NUMBER OF EQUATIONS=    1440
 SOLVING FOR ZETA FOR LAYER     2 ZONE     2

     635 UPPER PART EQS.       638 LOWER PART EQS.    BAND WIDTH + 1 =   32
 STRESS PERIOD=  3 TIMESTEP= 39 LAYER=  2 ZONE=  2 ACTIVE CELLS= 1273 NUMBER OF EQUATIONS=    1273
 UBUDSV SAVING "      ZETASRF  1" ON UNIT 55 AT TIME STEP 39, STRESS PERIOD    3

 HEAD WILL BE SAVED ON UNIT   51 AT END OF TIME STEP   39, STRESS PERIOD    3
 
 SOLVING FOR HEAD 
                                                   Max.-Head-Change                         Max.-Flux-Residual
  Residual-Control   Outer-Iter.   Inner-Iter.     Column Row Layer    Maximum-Head-Change  Column Row Layer    Maximum-Flux-Residual          L2-NORM 
          0                 1           1            15   40     1      -0.2386863726E-03      15   22    1        -0.2296478541E+00      0.7275250142E+00
          0                 2           1            44   31     1      -0.1680238101E-04      18   39    1        -0.3881181382E-02      0.2582082077E-01
          0                 3           1            41   32     1      -0.1860888158E-04      41   31    2        -0.8643182192E-03      0.1047464243E-01
          0                 4           1            37   31     2      -0.1048620611E-04      37   31    2        -0.7155673641E-03      0.7546972234E-02
          0                 5           1            39   29     2      -0.1124371738E-04      39   29    2        -0.5297063971E-03      0.6233659872E-02
          0                 6           1            37   31     2      -0.6407013729E-05      43   29    2        -0.4185120498E-03      0.5337585463E-02

    ------------------------------------------------
       NWT REQUIRED            6 OUTER ITERATIONS 
       AND A TOTAL OF          6 INNER ITERATIONS.
    ------------------------------------------------

 OUTPUT CONTROL FOR STRESS PERIOD    3   TIME STEP   40
    SAVE HEAD FOR ALL LAYERS
 SOLVING FOR ZETA FOR LAYER     1 ZONE     2

     717 UPPER PART EQS.       737 LOWER PART EQS.    BAND WIDTH + 1 =   40
 STRESS PERIOD=  3 TIMESTEP= 40 LAYER=  1 ZONE=  2 ACTIVE CELLS= 1454 NUMBER OF EQUATIONS=    1454
 SOLVING FOR ZETA FOR LAYER     2 ZONE     2

     635 UPPER PART EQS.       638 LOWER PART EQS.    BAND WIDTH + 1 =   32
 STRESS PERIOD=  3 TIMESTEP= 40 LAYER=  2 ZONE=  2 ACTIVE CELLS= 1273 NUMBER OF EQUATIONS=    1273
 UBUDSV SAVING "      ZETASRF  1" ON UNIT 55 AT TIME STEP 40, STRESS PERIOD    3

 HEAD WILL BE SAVED ON UNIT   51 AT END OF TIME STEP   40, STRESS PERIOD    3
 
 SOLVING FOR HEAD 
                                                   Max.-Head-Change                         Max.-Flux-Residual
  Residual-Control   Outer-Iter.   Inner-Iter.     Column Row Layer    Maximum-Head-Change  Column Row Layer    Maximum-Flux-Residual          L2-NORM 
          0                 1           1            15   22     1       0.2572046218E-03      15   40    1         0.2203001812E+00      0.7749126806E+00
          0                 2           1            44   31     1      -0.3399895477E-04      44   33    1        -0.4626136111E-02      0.3213037492E-01
          0                 3           1            41   31     2      -0.2647236432E-04      45   28    1        -0.1442016665E-02      0.1476446310E-01
          0                 4           1            37   31     2      -0.1390774785E-04      44   33    1        -0.9601506453E-03      0.1062568125E-01
          0                 5           1            39   29     2      -0.1662959237E-04      39   29    2        -0.7146289553E-03      0.8928330870E-02
          0                 6           1            37   31     2      -0.8740961752E-05      44   33    1        -0.6278771086E-03      0.7716879102E-02

    ------------------------------------------------
       NWT REQUIRED            6 OUTER ITERATIONS 
       AND A TOTAL OF          6 INNER ITERATIONS.
    ------------------------------------------------

 OUTPUT CONTROL FOR STRESS PERIOD    3   TIME STEP   41
    SAVE HEAD FOR ALL LAYERS
 SOLVING FOR ZETA FOR LAYER     1 ZONE     2

     715 UPPER PART EQS.       725 LOWER PART EQS.    BAND WIDTH + 1 =   33
 STRESS PERIOD=  3 TIMESTEP= 41 LAYER=  1 ZONE=  2 ACTIVE CELLS= 1440 NUMBER OF EQUATIONS=    1440
 SOLVING FOR ZETA FOR LAYER     2 ZONE     2

     635 UPPER PART EQS.       638 LOWER PART EQS.    BAND WIDTH + 1 =   32
 STRESS PERIOD=  3 TIMESTEP= 41 LAYER=  2 ZONE=  2 ACTIVE CELLS= 1273 NUMBER OF EQUATIONS=    1273
 UBUDSV SAVING "      ZETASRF  1" ON UNIT 55 AT TIME STEP 41, STRESS PERIOD    3

 HEAD WILL BE SAVED ON UNIT   51 AT END OF TIME STEP   41, STRESS PERIOD    3
 
 SOLVING FOR HEAD 
                                                   Max.-Head-Change                         Max.-Flux-Residual
  Residual-Control   Outer-Iter.   Inner-Iter.     Column Row Layer    Maximum-Head-Change  Column Row Layer    Maximum-Flux-Residual          L2-NORM 
          0                 1           1            38   15     1      -0.2425263066E-03      38   47    1        -0.1671045868E+00      0.8348434523E+00
          0                 2           1            44   35     1      -0.2305615532E-04      35   48    1        -0.4304338409E-02      0.2839902578E-01
          0                 3           1            40   32     2      -0.2378067220E-04      41   31    2        -0.1083814663E-02      0.1270519522E-01
          0                 4           1            37   31     2      -0.1225486539E-04      37   31    2        -0.7970262430E-03      0.9409894181E-02
          0                 5           1            40   32     2      -0.1403188219E-04      40   32    2        -0.6112718786E-03      0.7851853973E-02
          0                 6           1            37   31     2      -0.7679096583E-05      43   29    2        -0.5552244038E-03      0.6780190898E-02

    ------------------------------------------------
       NWT REQUIRED            6 OUTER ITERATIONS 
       AND A TOTAL OF          6 INNER ITERATIONS.
    ------------------------------------------------

 OUTPUT CONTROL FOR STRESS PERIOD    3   TIME STEP   42
    SAVE HEAD FOR ALL LAYERS
 SOLVING FOR ZETA FOR LAYER     1 ZONE     2

     716 UPPER PART EQS.       731 LOWER PART EQS.    BAND WIDTH + 1 =   35
 STRESS PERIOD=  3 TIMESTEP= 42 LAYER=  1 ZONE=  2 ACTIVE CELLS= 1447 NUMBER OF EQUATIONS=    1447
 SOLVING FOR ZETA FOR LAYER     2 ZONE     2

     635 UPPER PART EQS.       638 LOWER PART EQS.    BAND WIDTH + 1 =   32
 STRESS PERIOD=  3 TIMESTEP= 42 LAYER=  2 ZONE=  2 ACTIVE CELLS= 1273 NUMBER OF EQUATIONS=    1273
 UBUDSV SAVING "      ZETASRF  1" ON UNIT 55 AT TIME STEP 42, STRESS PERIOD    3

 HEAD WILL BE SAVED ON UNIT   51 AT END OF TIME STEP   42, STRESS PERIOD    3
 
 SOLVING FOR HEAD 
                                                   Max.-Head-Change                         Max.-Flux-Residual
  Residual-Control   Outer-Iter.   Inner-Iter.     Column Row Layer    Maximum-Head-Change  Column Row Layer    Maximum-Flux-Residual          L2-NORM 
          0                 1           1            39   15     1      -0.2562740952E-03      39   15    1        -0.2503900460E+00      0.9414321534E+00
          0                 2           1            46   33     1      -0.1548143481E-04      36   49    1         0.4310845533E-02      0.3089485268E-01
          0                 3           1            39   24     1      -0.1348985930E-04      49   32    1        -0.7575712769E-03      0.1133074507E-01
          0                 4           1            41   33     2      -0.8476337620E-05      46   31    1        -0.5504441978E-03      0.8169289202E-02

    ------------------------------------------------
       NWT REQUIRED            4 OUTER ITERATIONS 
       AND A TOTAL OF          4 INNER ITERATIONS.
    ------------------------------------------------

 OUTPUT CONTROL FOR STRESS PERIOD    3   TIME STEP   43
    SAVE HEAD FOR ALL LAYERS
 SOLVING FOR ZETA FOR LAYER     1 ZONE     2

     709 UPPER PART EQS.       729 LOWER PART EQS.    BAND WIDTH + 1 =   40
 STRESS PERIOD=  3 TIMESTEP= 43 LAYER=  1 ZONE=  2 ACTIVE CELLS= 1438 NUMBER OF EQUATIONS=    1438
 SOLVING FOR ZETA FOR LAYER     2 ZONE     2

     635 UPPER PART EQS.       638 LOWER PART EQS.    BAND WIDTH + 1 =   32
 STRESS PERIOD=  3 TIMESTEP= 43 LAYER=  2 ZONE=  2 ACTIVE CELLS= 1273 NUMBER OF EQUATIONS=    1273
 UBUDSV SAVING "      ZETASRF  1" ON UNIT 55 AT TIME STEP 43, STRESS PERIOD    3

 HEAD WILL BE SAVED ON UNIT   51 AT END OF TIME STEP   43, STRESS PERIOD    3
 
 SOLVING FOR HEAD 
                                                   Max.-Head-Change                         Max.-Flux-Residual
  Residual-Control   Outer-Iter.   Inner-Iter.     Column Row Layer    Maximum-Head-Change  Column Row Layer    Maximum-Flux-Residual          L2-NORM 
          0                 1           1            39   14     1      -0.2861385339E-03      39   47    1         0.2414344763E+00      0.8453847642E+00
          0                 2           1            44   27     1      -0.2615835469E-04      42   47    1        -0.4848574706E-02      0.2973034324E-01
          0                 3           1            41   30     1      -0.2379355485E-04      41   28    1        -0.1068566731E-02      0.1205468805E-01
          0                 4           1            37   31     2      -0.1195851922E-04      37   31    2        -0.7884172035E-03      0.8605445352E-02
          0                 5           1            39   30     1      -0.1280384500E-04      39   29    2        -0.5611470945E-03      0.7088467810E-02
          0                 6           1            37   31     2      -0.7155057826E-05      44   37    1        -0.4719061130E-03      0.6090307064E-02

    ------------------------------------------------
       NWT REQUIRED            6 OUTER ITERATIONS 
       AND A TOTAL OF          6 INNER ITERATIONS.
    ------------------------------------------------

 OUTPUT CONTROL FOR STRESS PERIOD    3   TIME STEP   44
    SAVE HEAD FOR ALL LAYERS
 SOLVING FOR ZETA FOR LAYER     1 ZONE     2

     719 UPPER PART EQS.       731 LOWER PART EQS.    BAND WIDTH + 1 =   32
 STRESS PERIOD=  3 TIMESTEP= 44 LAYER=  1 ZONE=  2 ACTIVE CELLS= 1450 NUMBER OF EQUATIONS=    1450
 SOLVING FOR ZETA FOR LAYER     2 ZONE     2

     635 UPPER PART EQS.       636 LOWER PART EQS.    BAND WIDTH + 1 =   31
 STRESS PERIOD=  3 TIMESTEP= 44 LAYER=  2 ZONE=  2 ACTIVE CELLS= 1271 NUMBER OF EQUATIONS=    1271
 UBUDSV SAVING "      ZETASRF  1" ON UNIT 55 AT TIME STEP 44, STRESS PERIOD    3

 HEAD WILL BE SAVED ON UNIT   51 AT END OF TIME STEP   44, STRESS PERIOD    3
 
 SOLVING FOR HEAD 
                                                   Max.-Head-Change                         Max.-Flux-Residual
  Residual-Control   Outer-Iter.   Inner-Iter.     Column Row Layer    Maximum-Head-Change  Column Row Layer    Maximum-Flux-Residual          L2-NORM 
          0                 1           1            22   15     1      -0.3001463072E-03      22   47    1        -0.2501482047E+00      0.7901830279E+00
          0                 2           1            24   45     1      -0.1548558042E-04      19   48    1        -0.4709935261E-02      0.2937715463E-01
          0                 3           1            40   33     1      -0.1332133311E-04      44   37    1        -0.7985275519E-03      0.1139723057E-01
          0                 4           1            37   31     2      -0.9314013419E-05      35   29    2        -0.5520421315E-03      0.8075787990E-02

    ------------------------------------------------
       NWT REQUIRED            4 OUTER ITERATIONS 
       AND A TOTAL OF          4 INNER ITERATIONS.
    ------------------------------------------------

 OUTPUT CONTROL FOR STRESS PERIOD    3   TIME STEP   45
    SAVE HEAD FOR ALL LAYERS
 SOLVING FOR ZETA FOR LAYER     1 ZONE     2

     715 UPPER PART EQS.       727 LOWER PART EQS.    BAND WIDTH + 1 =   32
 STRESS PERIOD=  3 TIMESTEP= 45 LAYER=  1 ZONE=  2 ACTIVE CELLS= 1442 NUMBER OF EQUATIONS=    1442
 SOLVING FOR ZETA FOR LAYER     2 ZONE     2

     635 UPPER PART EQS.       636 LOWER PART EQS.    BAND WIDTH + 1 =   31
 STRESS PERIOD=  3 TIMESTEP= 45 LAYER=  2 ZONE=  2 ACTIVE CELLS= 1271 NUMBER OF EQUATIONS=    1271
 UBUDSV SAVING "      ZETASRF  1" ON UNIT 55 AT TIME STEP 45, STRESS PERIOD    3

 HEAD WILL BE SAVED ON UNIT   51 AT END OF TIME STEP   45, STRESS PERIOD    3
 
 SOLVING FOR HEAD 
                                                   Max.-Head-Change                         Max.-Flux-Residual
  Residual-Control   Outer-Iter.   Inner-Iter.     Column Row Layer    Maximum-Head-Change  Column Row Layer    Maximum-Flux-Residual          L2-NORM 
          0                 1           1            56   44     1       0.2991727218E-03      56   18    1         0.3202095059E+00      0.1081724401E+01
          0                 2           1            44   33     1      -0.2890309805E-04      19   48    1         0.4619587542E-02      0.3162834900E-01
          0                 3           1            41   31     2      -0.2427296075E-04      41   31    2        -0.1244917843E-02      0.1300815723E-01
          0                 4           1            37   31     2      -0.1318268518E-04      44   33    1        -0.8943838417E-03      0.9412208497E-02
          0                 5           1            39   32     1      -0.1357798331E-04      46   31    1        -0.6027511191E-03      0.7851727119E-02
          0                 6           1            37   31     2      -0.8257496207E-05      44   33    1        -0.5902918651E-03      0.6760325945E-02

    ------------------------------------------------
       NWT REQUIRED            6 OUTER ITERATIONS 
       AND A TOTAL OF          6 INNER ITERATIONS.
    ------------------------------------------------

 OUTPUT CONTROL FOR STRESS PERIOD    3   TIME STEP   46
    SAVE HEAD FOR ALL LAYERS
 SOLVING FOR ZETA FOR LAYER     1 ZONE     2

     723 UPPER PART EQS.       733 LOWER PART EQS.    BAND WIDTH + 1 =   32
 STRESS PERIOD=  3 TIMESTEP= 46 LAYER=  1 ZONE=  2 ACTIVE CELLS= 1456 NUMBER OF EQUATIONS=    1456
 SOLVING FOR ZETA FOR LAYER     2 ZONE     2

     635 UPPER PART EQS.       636 LOWER PART EQS.    BAND WIDTH + 1 =   31
 STRESS PERIOD=  3 TIMESTEP= 46 LAYER=  2 ZONE=  2 ACTIVE CELLS= 1271 NUMBER OF EQUATIONS=    1271
 UBUDSV SAVING "      ZETASRF  1" ON UNIT 55 AT TIME STEP 46, STRESS PERIOD    3

 HEAD WILL BE SAVED ON UNIT   51 AT END OF TIME STEP   46, STRESS PERIOD    3
 
 SOLVING FOR HEAD 
                                                   Max.-Head-Change                         Max.-Flux-Residual
  Residual-Control   Outer-Iter.   Inner-Iter.     Column Row Layer    Maximum-Head-Change  Column Row Layer    Maximum-Flux-Residual          L2-NORM 
          0                 1           1            47   37     1      -0.3196300957E-03      47   25    1        -0.2280298905E+00      0.1157159489E+01
          0                 2           1            43   28     1      -0.4135209156E-04      44   29    1        -0.7122936445E-02      0.4314230925E-01
          0                 3           1            40   30     2      -0.3122294928E-04      45   28    1        -0.1845506238E-02      0.1917750263E-01
          0                 4           1            37   31     2      -0.1777966467E-04      44   29    1        -0.1306907599E-02      0.1404343458E-01
          0                 5           1            40   32     2      -0.2018653198E-04      46   27    1        -0.9263127269E-03      0.1206139720E-01
          0                 6           1            37   31     2      -0.1156236130E-04      44   29    1        -0.8341896554E-03      0.1071132778E-01
          0                 7           1            40   32     2      -0.1469567885E-04      46   27    1        -0.6496241006E-03      0.9428356185E-02
          0                 8           1            37   31     2      -0.8450704248E-05      43   29    2        -0.6185163743E-03      0.8504908532E-02

    ------------------------------------------------
       NWT REQUIRED            8 OUTER ITERATIONS 
       AND A TOTAL OF          8 INNER ITERATIONS.
    ------------------------------------------------

 OUTPUT CONTROL FOR STRESS PERIOD    3   TIME STEP   47
    SAVE HEAD FOR ALL LAYERS
 SOLVING FOR ZETA FOR LAYER     1 ZONE     2

     706 UPPER PART EQS.       719 LOWER PART EQS.    BAND WIDTH + 1 =   35
 STRESS PERIOD=  3 TIMESTEP= 47 LAYER=  1 ZONE=  2 ACTIVE CELLS= 1425 NUMBER OF EQUATIONS=    1425
 SOLVING FOR ZETA FOR LAYER     2 ZONE     2

     635 UPPER PART EQS.       636 LOWER PART EQS.    BAND WIDTH + 1 =   31
 STRESS PERIOD=  3 TIMESTEP= 47 LAYER=  2 ZONE=  2 ACTIVE CELLS= 1271 NUMBER OF EQUATIONS=    1271
 UBUDSV SAVING "      ZETASRF  1" ON UNIT 55 AT TIME STEP 47, STRESS PERIOD    3

 HEAD WILL BE SAVED ON UNIT   51 AT END OF TIME STEP   47, STRESS PERIOD    3
 
 SOLVING FOR HEAD 
                                                   Max.-Head-Change                         Max.-Flux-Residual
  Residual-Control   Outer-Iter.   Inner-Iter.     Column Row Layer    Maximum-Head-Change  Column Row Layer    Maximum-Flux-Residual          L2-NORM 
          0                 1           1            48   28     1      -0.2898543404E-03      47   25    1         0.2209082481E+00      0.9970221892E+00
          0                 2           1            46   37     1      -0.1380014628E-04      44   29    1         0.4719770044E-02      0.3413437018E-01
          0                 3           1            34   34     2      -0.7712761156E-05      49   36    1        -0.6217879459E-03      0.7550737122E-02

    ------------------------------------------------
       NWT REQUIRED            3 OUTER ITERATIONS 
       AND A TOTAL OF          3 INNER ITERATIONS.
    ------------------------------------------------

 OUTPUT CONTROL FOR STRESS PERIOD    3   TIME STEP   48
    SAVE HEAD FOR ALL LAYERS
 SOLVING FOR ZETA FOR LAYER     1 ZONE     2

     719 UPPER PART EQS.       737 LOWER PART EQS.    BAND WIDTH + 1 =   39
 STRESS PERIOD=  3 TIMESTEP= 48 LAYER=  1 ZONE=  2 ACTIVE CELLS= 1456 NUMBER OF EQUATIONS=    1456
 SOLVING FOR ZETA FOR LAYER     2 ZONE     2

     635 UPPER PART EQS.       636 LOWER PART EQS.    BAND WIDTH + 1 =   31
 STRESS PERIOD=  3 TIMESTEP= 48 LAYER=  2 ZONE=  2 ACTIVE CELLS= 1271 NUMBER OF EQUATIONS=    1271
 UBUDSV SAVING "      ZETASRF  1" ON UNIT 55 AT TIME STEP 48, STRESS PERIOD    3

 HEAD WILL BE SAVED ON UNIT   51 AT END OF TIME STEP   48, STRESS PERIOD    3
 
 SOLVING FOR HEAD 
                                                   Max.-Head-Change                         Max.-Flux-Residual
  Residual-Control   Outer-Iter.   Inner-Iter.     Column Row Layer    Maximum-Head-Change  Column Row Layer    Maximum-Flux-Residual          L2-NORM 
          0                 1           1            47   20     1      -0.1411123684E-03      46   20    1         0.1080715933E+00      0.4265705791E+00
          0                 2           1            42   30     2      -0.1547137220E-04      39   46    1        -0.3031031927E-02      0.2285056044E-01
          0                 3           1            41   32     1      -0.1567598967E-04      40   32    2        -0.7439740334E-03      0.1031254871E-01
          0                 4           1            38   32     2      -0.8754744633E-05      37   31    2        -0.6819489255E-03      0.7133702464E-02

    ------------------------------------------------
       NWT REQUIRED            4 OUTER ITERATIONS 
       AND A TOTAL OF          4 INNER ITERATIONS.
    ------------------------------------------------

 OUTPUT CONTROL FOR STRESS PERIOD    3   TIME STEP   49
    SAVE HEAD FOR ALL LAYERS
 SOLVING FOR ZETA FOR LAYER     1 ZONE     2

     717 UPPER PART EQS.       733 LOWER PART EQS.    BAND WIDTH + 1 =   37
 STRESS PERIOD=  3 TIMESTEP= 49 LAYER=  1 ZONE=  2 ACTIVE CELLS= 1450 NUMBER OF EQUATIONS=    1450
 SOLVING FOR ZETA FOR LAYER     2 ZONE     2

     635 UPPER PART EQS.       636 LOWER PART EQS.    BAND WIDTH + 1 =   31
 STRESS PERIOD=  3 TIMESTEP= 49 LAYER=  2 ZONE=  2 ACTIVE CELLS= 1271 NUMBER OF EQUATIONS=    1271
 UBUDSV SAVING "      ZETASRF  1" ON UNIT 55 AT TIME STEP 49, STRESS PERIOD    3

 HEAD WILL BE SAVED ON UNIT   51 AT END OF TIME STEP   49, STRESS PERIOD    3
 
 SOLVING FOR HEAD 
                                                   Max.-Head-Change                         Max.-Flux-Residual
  Residual-Control   Outer-Iter.   Inner-Iter.     Column Row Layer    Maximum-Head-Change  Column Row Layer    Maximum-Flux-Residual          L2-NORM 
          0                 1           1            37   15     1      -0.1332533216E-03      37   47    1        -0.1224731007E+00      0.4327777619E+00
          0                 2           1            42   30     2      -0.1761049788E-04      34   49    1         0.2055893247E-02      0.2107219705E-01
          0                 3           1            41   32     1      -0.1965770841E-04      42   31    1        -0.8734772898E-03      0.1045456004E-01
          0                 4           1            37   31     2      -0.9483341632E-05      35   29    2        -0.6788100526E-03      0.7581443479E-02

    ------------------------------------------------
       NWT REQUIRED            4 OUTER ITERATIONS 
       AND A TOTAL OF          4 INNER ITERATIONS.
    ------------------------------------------------

 OUTPUT CONTROL FOR STRESS PERIOD    3   TIME STEP   50
    SAVE HEAD FOR ALL LAYERS
 SOLVING FOR ZETA FOR LAYER     1 ZONE     2

     723 UPPER PART EQS.       735 LOWER PART EQS.    BAND WIDTH + 1 =   33
 STRESS PERIOD=  3 TIMESTEP= 50 LAYER=  1 ZONE=  2 ACTIVE CELLS= 1458 NUMBER OF EQUATIONS=    1458
 SOLVING FOR ZETA FOR LAYER     2 ZONE     2

     635 UPPER PART EQS.       636 LOWER PART EQS.    BAND WIDTH + 1 =   31
 STRESS PERIOD=  3 TIMESTEP= 50 LAYER=  2 ZONE=  2 ACTIVE CELLS= 1271 NUMBER OF EQUATIONS=    1271
 UBUDSV SAVING "      ZETASRF  1" ON UNIT 55 AT TIME STEP 50, STRESS PERIOD    3

 HEAD WILL BE SAVED ON UNIT   51 AT END OF TIME STEP   50, STRESS PERIOD    3
 
 SOLVING FOR HEAD 
                                                   Max.-Head-Change                         Max.-Flux-Residual
  Residual-Control   Outer-Iter.   Inner-Iter.     Column Row Layer    Maximum-Head-Change  Column Row Layer    Maximum-Flux-Residual          L2-NORM 
          0                 1           1            23   15     1      -0.2397640000E-03      23   15    1        -0.1645089679E+00      0.7603330614E+00
          0                 2           1            44   33     1      -0.3144821245E-04      44   33    1        -0.4703464574E-02      0.3279084192E-01
          0                 3           1            41   31     2      -0.2236039755E-04      46   31    1        -0.1293462677E-02      0.1486321195E-01
          0                 4           1            38   32     2      -0.1351389284E-04      44   33    1        -0.1046016435E-02      0.1081803567E-01
          0                 5           1            39   32     1      -0.1439233743E-04      46   31    1        -0.6610799152E-03      0.9233518614E-02
          0                 6           1            36   32     2      -0.9382659378E-05      44   33    1        -0.6665712452E-03      0.8163548743E-02

    ------------------------------------------------
       NWT REQUIRED            6 OUTER ITERATIONS 
       AND A TOTAL OF          6 INNER ITERATIONS.
    ------------------------------------------------

 OUTPUT CONTROL FOR STRESS PERIOD    3   TIME STEP   51
    SAVE HEAD FOR ALL LAYERS
 SOLVING FOR ZETA FOR LAYER     1 ZONE     2

     715 UPPER PART EQS.       723 LOWER PART EQS.    BAND WIDTH + 1 =   29
 STRESS PERIOD=  3 TIMESTEP= 51 LAYER=  1 ZONE=  2 ACTIVE CELLS= 1438 NUMBER OF EQUATIONS=    1438
 SOLVING FOR ZETA FOR LAYER     2 ZONE     2

     635 UPPER PART EQS.       636 LOWER PART EQS.    BAND WIDTH + 1 =   31
 STRESS PERIOD=  3 TIMESTEP= 51 LAYER=  2 ZONE=  2 ACTIVE CELLS= 1271 NUMBER OF EQUATIONS=    1271
 UBUDSV SAVING "      ZETASRF  1" ON UNIT 55 AT TIME STEP 51, STRESS PERIOD    3

 HEAD WILL BE SAVED ON UNIT   51 AT END OF TIME STEP   51, STRESS PERIOD    3
 
 SOLVING FOR HEAD 
                                                   Max.-Head-Change                         Max.-Flux-Residual
  Residual-Control   Outer-Iter.   Inner-Iter.     Column Row Layer    Maximum-Head-Change  Column Row Layer    Maximum-Flux-Residual          L2-NORM 
          0                 1           1            47   26     1      -0.2580303787E-03      15   22    1        -0.2362860547E+00      0.1011582845E+01
          0                 2           1            44   27     1      -0.2547642313E-04      44   37    1        -0.4986967013E-02      0.3189642170E-01
          0                 3           1            41   30     1      -0.2302193963E-04      41   28    1        -0.1090222433E-02      0.1343607047E-01
          0                 4           1            38   31     1      -0.1242396624E-04      44   37    1        -0.8216346306E-03      0.9726368892E-02
          0                 5           1            39   31     2      -0.1407091612E-04      44   33    1        -0.5954947810E-03      0.8171645853E-02
          0                 6           1            38   31     1      -0.7991565697E-05      44   37    1        -0.5371837719E-03      0.7062069070E-02

    ------------------------------------------------
       NWT REQUIRED            6 OUTER ITERATIONS 
       AND A TOTAL OF          6 INNER ITERATIONS.
    ------------------------------------------------

 OUTPUT CONTROL FOR STRESS PERIOD    3   TIME STEP   52
    SAVE HEAD FOR ALL LAYERS
 SOLVING FOR ZETA FOR LAYER     1 ZONE     2

     722 UPPER PART EQS.       727 LOWER PART EQS.    BAND WIDTH + 1 =   26
 STRESS PERIOD=  3 TIMESTEP= 52 LAYER=  1 ZONE=  2 ACTIVE CELLS= 1449 NUMBER OF EQUATIONS=    1449
 SOLVING FOR ZETA FOR LAYER     2 ZONE     2

     635 UPPER PART EQS.       636 LOWER PART EQS.    BAND WIDTH + 1 =   31
 STRESS PERIOD=  3 TIMESTEP= 52 LAYER=  2 ZONE=  2 ACTIVE CELLS= 1271 NUMBER OF EQUATIONS=    1271
 UBUDSV SAVING "      ZETASRF  1" ON UNIT 55 AT TIME STEP 52, STRESS PERIOD    3

 HEAD WILL BE SAVED ON UNIT   51 AT END OF TIME STEP   52, STRESS PERIOD    3
 
 SOLVING FOR HEAD 
                                                   Max.-Head-Change                         Max.-Flux-Residual
  Residual-Control   Outer-Iter.   Inner-Iter.     Column Row Layer    Maximum-Head-Change  Column Row Layer    Maximum-Flux-Residual          L2-NORM 
          0                 1           1            22   15     1      -0.3133683466E-03      22   47    1        -0.2568459833E+00      0.1107078180E+01
          0                 2           1            43   30     1      -0.3019025270E-04      44   29    1        -0.6217437643E-02      0.3392924097E-01
          0                 3           1            41   31     2      -0.2746266441E-04      45   28    1        -0.1519368113E-02      0.1373891467E-01
          0                 4           1            37   31     2      -0.1311854058E-04      43   30    1        -0.9082172802E-03      0.9882316613E-02
          0                 5           1            39   31     2      -0.1389616926E-04      45   28    1        -0.7436557548E-03      0.8327153483E-02
          0                 6           1            36   32     2      -0.8747035986E-05      43   30    1        -0.6198657455E-03      0.7289503872E-02

    ------------------------------------------------
       NWT REQUIRED            6 OUTER ITERATIONS 
       AND A TOTAL OF          6 INNER ITERATIONS.
    ------------------------------------------------

 OUTPUT CONTROL FOR STRESS PERIOD    3   TIME STEP   53
    SAVE HEAD FOR ALL LAYERS
 SOLVING FOR ZETA FOR LAYER     1 ZONE     2

     719 UPPER PART EQS.       725 LOWER PART EQS.    BAND WIDTH + 1 =   29
 STRESS PERIOD=  3 TIMESTEP= 53 LAYER=  1 ZONE=  2 ACTIVE CELLS= 1444 NUMBER OF EQUATIONS=    1444
 SOLVING FOR ZETA FOR LAYER     2 ZONE     2

     635 UPPER PART EQS.       636 LOWER PART EQS.    BAND WIDTH + 1 =   31
 STRESS PERIOD=  3 TIMESTEP= 53 LAYER=  2 ZONE=  2 ACTIVE CELLS= 1271 NUMBER OF EQUATIONS=    1271
 UBUDSV SAVING "      ZETASRF  1" ON UNIT 55 AT TIME STEP 53, STRESS PERIOD    3

 HEAD WILL BE SAVED ON UNIT   51 AT END OF TIME STEP   53, STRESS PERIOD    3
 
 SOLVING FOR HEAD 
                                                   Max.-Head-Change                         Max.-Flux-Residual
  Residual-Control   Outer-Iter.   Inner-Iter.     Column Row Layer    Maximum-Head-Change  Column Row Layer    Maximum-Flux-Residual          L2-NORM 
          0                 1           1            48   28     1      -0.2994307266E-03      22   47    1         0.2468075907E+00      0.9138876342E+00
          0                 2           1            46   35     1      -0.1415224027E-04      44   35    1         0.4639021224E-02      0.2865706214E-01
          0                 3           1            35   35     2      -0.1002511674E-04      34   30    2        -0.5523688295E-03      0.7650830817E-02
          0                 4           1            41   33     2      -0.6476696486E-05      41   28    1        -0.4134417577E-03      0.5415266604E-02

    ------------------------------------------------
       NWT REQUIRED            4 OUTER ITERATIONS 
       AND A TOTAL OF          4 INNER ITERATIONS.
    ------------------------------------------------

 OUTPUT CONTROL FOR STRESS PERIOD    3   TIME STEP   54
    SAVE HEAD FOR ALL LAYERS
 SOLVING FOR ZETA FOR LAYER     1 ZONE     2

     719 UPPER PART EQS.       735 LOWER PART EQS.    BAND WIDTH + 1 =   37
 STRESS PERIOD=  3 TIMESTEP= 54 LAYER=  1 ZONE=  2 ACTIVE CELLS= 1454 NUMBER OF EQUATIONS=    1454
 SOLVING FOR ZETA FOR LAYER     2 ZONE     2

     635 UPPER PART EQS.       636 LOWER PART EQS.    BAND WIDTH + 1 =   31
 STRESS PERIOD=  3 TIMESTEP= 54 LAYER=  2 ZONE=  2 ACTIVE CELLS= 1271 NUMBER OF EQUATIONS=    1271
 UBUDSV SAVING "      ZETASRF  1" ON UNIT 55 AT TIME STEP 54, STRESS PERIOD    3

 HEAD WILL BE SAVED ON UNIT   51 AT END OF TIME STEP   54, STRESS PERIOD    3
 
 SOLVING FOR HEAD 
                                                   Max.-Head-Change                         Max.-Flux-Residual
  Residual-Control   Outer-Iter.   Inner-Iter.     Column Row Layer    Maximum-Head-Change  Column Row Layer    Maximum-Flux-Residual          L2-NORM 
          0                 1           1            15   23     1      -0.1902650161E-03      23   47    1        -0.1666982027E+00      0.6573777279E+00
          0                 2           1            42   30     2      -0.1509046923E-04      11   40    1         0.2926946742E-02      0.2413350510E-01
          0                 3           1            41   32     1      -0.1842036042E-04      42   31    1        -0.8152426037E-03      0.1028927349E-01
          0                 4           1            37   32     1      -0.8728549678E-05      34   30    2        -0.5813462582E-03      0.7266528799E-02

    ------------------------------------------------
       NWT REQUIRED            4 OUTER ITERATIONS 
       AND A TOTAL OF          4 INNER ITERATIONS.
    ------------------------------------------------

 OUTPUT CONTROL FOR STRESS PERIOD    3   TIME STEP   55
    SAVE HEAD FOR ALL LAYERS
 SOLVING FOR ZETA FOR LAYER     1 ZONE     2

     717 UPPER PART EQS.       731 LOWER PART EQS.    BAND WIDTH + 1 =   35
 STRESS PERIOD=  3 TIMESTEP= 55 LAYER=  1 ZONE=  2 ACTIVE CELLS= 1448 NUMBER OF EQUATIONS=    1448
 SOLVING FOR ZETA FOR LAYER     2 ZONE     2

     635 UPPER PART EQS.       636 LOWER PART EQS.    BAND WIDTH + 1 =   31
 STRESS PERIOD=  3 TIMESTEP= 55 LAYER=  2 ZONE=  2 ACTIVE CELLS= 1271 NUMBER OF EQUATIONS=    1271
 UBUDSV SAVING "      ZETASRF  1" ON UNIT 55 AT TIME STEP 55, STRESS PERIOD    3

 HEAD WILL BE SAVED ON UNIT   51 AT END OF TIME STEP   55, STRESS PERIOD    3
 
 SOLVING FOR HEAD 
                                                   Max.-Head-Change                         Max.-Flux-Residual
  Residual-Control   Outer-Iter.   Inner-Iter.     Column Row Layer    Maximum-Head-Change  Column Row Layer    Maximum-Flux-Residual          L2-NORM 
          0                 1           1            23   47     1       0.1913633873E-03      23   15    1         0.1597750881E+00      0.5866642782E+00
          0                 2           1            42   30     2      -0.1803265641E-04      26   47    1        -0.2885725457E-02      0.2429123271E-01
          0                 3           1            41   32     1      -0.2089949592E-04      42   31    1        -0.9300173425E-03      0.1181584039E-01
          0                 4           1            38   31     1      -0.1057651798E-04      43   33    2        -0.6601692440E-03      0.8479716225E-02
          0                 5           1            37   31     2      -0.1249474645E-04      37   31    2        -0.5070029347E-03      0.6916200704E-02
          0                 6           1            38   31     1      -0.6651831150E-05      43   33    2        -0.4377878004E-03      0.5850716569E-02

    ------------------------------------------------
       NWT REQUIRED            6 OUTER ITERATIONS 
       AND A TOTAL OF          6 INNER ITERATIONS.
    ------------------------------------------------

 OUTPUT CONTROL FOR STRESS PERIOD    3   TIME STEP   56
    SAVE HEAD FOR ALL LAYERS
 SOLVING FOR ZETA FOR LAYER     1 ZONE     2

     719 UPPER PART EQS.       733 LOWER PART EQS.    BAND WIDTH + 1 =   36
 STRESS PERIOD=  3 TIMESTEP= 56 LAYER=  1 ZONE=  2 ACTIVE CELLS= 1452 NUMBER OF EQUATIONS=    1452
 SOLVING FOR ZETA FOR LAYER     2 ZONE     2

     635 UPPER PART EQS.       636 LOWER PART EQS.    BAND WIDTH + 1 =   31
 STRESS PERIOD=  3 TIMESTEP= 56 LAYER=  2 ZONE=  2 ACTIVE CELLS= 1271 NUMBER OF EQUATIONS=    1271
 UBUDSV SAVING "      ZETASRF  1" ON UNIT 55 AT TIME STEP 56, STRESS PERIOD    3

 HEAD WILL BE SAVED ON UNIT   51 AT END OF TIME STEP   56, STRESS PERIOD    3
 
 SOLVING FOR HEAD 
                                                   Max.-Head-Change                         Max.-Flux-Residual
  Residual-Control   Outer-Iter.   Inner-Iter.     Column Row Layer    Maximum-Head-Change  Column Row Layer    Maximum-Flux-Residual          L2-NORM 
          0                 1           1            38   47     1      -0.2388362171E-03      38   15    1        -0.1857928800E+00      0.6726161750E+00
          0                 2           1            44   33     1      -0.2961874426E-04      44   33    1        -0.4801789350E-02      0.2921058993E-01
          0                 3           1            41   31     2      -0.2178566821E-04      46   31    1        -0.1237446155E-02      0.1302345074E-01
          0                 4           1            37   33     2      -0.1226975434E-04      44   33    1        -0.9917831953E-03      0.9456747250E-02
          0                 5           1            39   32     1      -0.1296001484E-04      46   31    1        -0.6403219451E-03      0.7941327751E-02
          0                 6           1            37   33     2      -0.8065428641E-05      44   33    1        -0.6421690840E-03      0.6905404689E-02

    ------------------------------------------------
       NWT REQUIRED            6 OUTER ITERATIONS 
       AND A TOTAL OF          6 INNER ITERATIONS.
    ------------------------------------------------

 OUTPUT CONTROL FOR STRESS PERIOD    3   TIME STEP   57
    SAVE HEAD FOR ALL LAYERS
 SOLVING FOR ZETA FOR LAYER     1 ZONE     2

     721 UPPER PART EQS.       727 LOWER PART EQS.    BAND WIDTH + 1 =   27
 STRESS PERIOD=  3 TIMESTEP= 57 LAYER=  1 ZONE=  2 ACTIVE CELLS= 1448 NUMBER OF EQUATIONS=    1448
 SOLVING FOR ZETA FOR LAYER     2 ZONE     2

     635 UPPER PART EQS.       636 LOWER PART EQS.    BAND WIDTH + 1 =   31
 STRESS PERIOD=  3 TIMESTEP= 57 LAYER=  2 ZONE=  2 ACTIVE CELLS= 1271 NUMBER OF EQUATIONS=    1271
 UBUDSV SAVING "      ZETASRF  1" ON UNIT 55 AT TIME STEP 57, STRESS PERIOD    3

 HEAD WILL BE SAVED ON UNIT   51 AT END OF TIME STEP   57, STRESS PERIOD    3
 
 SOLVING FOR HEAD 
                                                   Max.-Head-Change                         Max.-Flux-Residual
  Residual-Control   Outer-Iter.   Inner-Iter.     Column Row Layer    Maximum-Head-Change  Column Row Layer    Maximum-Flux-Residual          L2-NORM 
          0                 1           1            15   22     1      -0.2883370003E-03      15   40    1        -0.2394169624E+00      0.8813221784E+00
          0                 2           1            18   39     1      -0.1585348436E-04      18   39    1        -0.4621273627E-02      0.2562990572E-01
          0                 3           1            40   29     1      -0.1692788408E-04      42   31    1        -0.7870028632E-03      0.1056535226E-01
          0                 4           1            38   31     1      -0.9021408426E-05      46   31    1        -0.6314237568E-03      0.7692493225E-02

    ------------------------------------------------
       NWT REQUIRED            4 OUTER ITERATIONS 
       AND A TOTAL OF          4 INNER ITERATIONS.
    ------------------------------------------------

 OUTPUT CONTROL FOR STRESS PERIOD    3   TIME STEP   58
    SAVE HEAD FOR ALL LAYERS
 SOLVING FOR ZETA FOR LAYER     1 ZONE     2

     720 UPPER PART EQS.       731 LOWER PART EQS.    BAND WIDTH + 1 =   33
 STRESS PERIOD=  3 TIMESTEP= 58 LAYER=  1 ZONE=  2 ACTIVE CELLS= 1451 NUMBER OF EQUATIONS=    1451
 SOLVING FOR ZETA FOR LAYER     2 ZONE     2

     635 UPPER PART EQS.       636 LOWER PART EQS.    BAND WIDTH + 1 =   31
 STRESS PERIOD=  3 TIMESTEP= 58 LAYER=  2 ZONE=  2 ACTIVE CELLS= 1271 NUMBER OF EQUATIONS=    1271
 UBUDSV SAVING "      ZETASRF  1" ON UNIT 55 AT TIME STEP 58, STRESS PERIOD    3

 HEAD WILL BE SAVED ON UNIT   51 AT END OF TIME STEP   58, STRESS PERIOD    3
 
 SOLVING FOR HEAD 
                                                   Max.-Head-Change                         Max.-Flux-Residual
  Residual-Control   Outer-Iter.   Inner-Iter.     Column Row Layer    Maximum-Head-Change  Column Row Layer    Maximum-Flux-Residual          L2-NORM 
          0                 1           1            47   34     1      -0.2750872554E-03      15   40    1         0.2308297899E+00      0.9855653615E+00
          0                 2           1            44   29     1      -0.2966096131E-04      44   35    1        -0.5649732690E-02      0.3172254495E-01
          0                 3           1            41   32     1      -0.2821037562E-04      41   32    1        -0.1305830902E-02      0.1419044733E-01
          0                 4           1            37   33     2      -0.1315819268E-04      44   29    1        -0.9512192273E-03      0.1038882432E-01
          0                 5           1            39   31     2      -0.1545732747E-04      46   35    1        -0.6507401068E-03      0.8779302534E-02
          0                 6           1            37   33     2      -0.8443164281E-05      44   29    1        -0.5949266497E-03      0.7692413993E-02

    ------------------------------------------------
       NWT REQUIRED            6 OUTER ITERATIONS 
       AND A TOTAL OF          6 INNER ITERATIONS.
    ------------------------------------------------

 OUTPUT CONTROL FOR STRESS PERIOD    3   TIME STEP   59
    SAVE HEAD FOR ALL LAYERS
 SOLVING FOR ZETA FOR LAYER     1 ZONE     2

     713 UPPER PART EQS.       727 LOWER PART EQS.    BAND WIDTH + 1 =   35
 STRESS PERIOD=  3 TIMESTEP= 59 LAYER=  1 ZONE=  2 ACTIVE CELLS= 1440 NUMBER OF EQUATIONS=    1440
 SOLVING FOR ZETA FOR LAYER     2 ZONE     2

     635 UPPER PART EQS.       636 LOWER PART EQS.    BAND WIDTH + 1 =   31
 STRESS PERIOD=  3 TIMESTEP= 59 LAYER=  2 ZONE=  2 ACTIVE CELLS= 1271 NUMBER OF EQUATIONS=    1271
 UBUDSV SAVING "      ZETASRF  1" ON UNIT 55 AT TIME STEP 59, STRESS PERIOD    3

 HEAD WILL BE SAVED ON UNIT   51 AT END OF TIME STEP   59, STRESS PERIOD    3
 
 SOLVING FOR HEAD 
                                                   Max.-Head-Change                         Max.-Flux-Residual
  Residual-Control   Outer-Iter.   Inner-Iter.     Column Row Layer    Maximum-Head-Change  Column Row Layer    Maximum-Flux-Residual          L2-NORM 
          0                 1           1            22   15     1      -0.2703345165E-03      22   15    1        -0.2616609469E+00      0.9594082478E+00
          0                 2           1            46   35     1      -0.1343011784E-04      19   48    1        -0.4022694498E-02      0.2631974909E-01
          0                 3           1            37   31     2      -0.1637630504E-04      37   31    2        -0.7199203930E-03      0.9710624460E-02
          0                 4           1            40   32     2      -0.8846245291E-05      41   31    2        -0.5542368922E-03      0.7030456811E-02

    ------------------------------------------------
       NWT REQUIRED            4 OUTER ITERATIONS 
       AND A TOTAL OF          4 INNER ITERATIONS.
    ------------------------------------------------

 OUTPUT CONTROL FOR STRESS PERIOD    3   TIME STEP   60
    SAVE HEAD FOR ALL LAYERS
 SOLVING FOR ZETA FOR LAYER     1 ZONE     2

     721 UPPER PART EQS.       733 LOWER PART EQS.    BAND WIDTH + 1 =   33
 STRESS PERIOD=  3 TIMESTEP= 60 LAYER=  1 ZONE=  2 ACTIVE CELLS= 1454 NUMBER OF EQUATIONS=    1454
 SOLVING FOR ZETA FOR LAYER     2 ZONE     2

     635 UPPER PART EQS.       636 LOWER PART EQS.    BAND WIDTH + 1 =   31
 STRESS PERIOD=  3 TIMESTEP= 60 LAYER=  2 ZONE=  2 ACTIVE CELLS= 1271 NUMBER OF EQUATIONS=    1271
 UBUDSV SAVING "      ZETASRF  1" ON UNIT 55 AT TIME STEP 60, STRESS PERIOD    3

 HEAD WILL BE SAVED ON UNIT   51 AT END OF TIME STEP   60, STRESS PERIOD    3
 
 SOLVING FOR HEAD 
                                                   Max.-Head-Change                         Max.-Flux-Residual
  Residual-Control   Outer-Iter.   Inner-Iter.     Column Row Layer    Maximum-Head-Change  Column Row Layer    Maximum-Flux-Residual          L2-NORM 
          0                 1           1            22   15     1       0.2980405297E-03      22   15    1         0.2509163492E+00      0.7788050891E+00
          0                 2           1            45   28     1      -0.1471019740E-04      19   48    1         0.4863519473E-02      0.2737842378E-01
          0                 3           1            37   31     2      -0.1587489782E-04      43   30    1        -0.7694846567E-03      0.1078698350E-01
          0                 4           1            39   29     2      -0.9309694431E-05      42   34    2        -0.5674809400E-03      0.7671564752E-02

    ------------------------------------------------
       NWT REQUIRED            4 OUTER ITERATIONS 
       AND A TOTAL OF          4 INNER ITERATIONS.
    ------------------------------------------------

 OUTPUT CONTROL FOR STRESS PERIOD    3   TIME STEP   61
    SAVE HEAD FOR ALL LAYERS
 SOLVING FOR ZETA FOR LAYER     1 ZONE     2

     725 UPPER PART EQS.       727 LOWER PART EQS.    BAND WIDTH + 1 =   28
 STRESS PERIOD=  3 TIMESTEP= 61 LAYER=  1 ZONE=  2 ACTIVE CELLS= 1452 NUMBER OF EQUATIONS=    1452
 SOLVING FOR ZETA FOR LAYER     2 ZONE     2

     635 UPPER PART EQS.       636 LOWER PART EQS.    BAND WIDTH + 1 =   31
 STRESS PERIOD=  3 TIMESTEP= 61 LAYER=  2 ZONE=  2 ACTIVE CELLS= 1271 NUMBER OF EQUATIONS=    1271
 UBUDSV SAVING "      ZETASRF  1" ON UNIT 55 AT TIME STEP 61, STRESS PERIOD    3

 HEAD WILL BE SAVED ON UNIT   51 AT END OF TIME STEP   61, STRESS PERIOD    3
 
 SOLVING FOR HEAD 
                                                   Max.-Head-Change                         Max.-Flux-Residual
  Residual-Control   Outer-Iter.   Inner-Iter.     Column Row Layer    Maximum-Head-Change  Column Row Layer    Maximum-Flux-Residual          L2-NORM 
          0                 1           1            38   15     1      -0.2715893990E-03      38   47    1        -0.1900487651E+00      0.7027376838E+00
          0                 2           1            41   31     2      -0.1710195764E-04      35   48    1        -0.4760768219E-02      0.2763852171E-01
          0                 3           1            40   31     1      -0.2121901232E-04      41   32    1        -0.9351490324E-03      0.1242462269E-01
          0                 4           1            38   33     1      -0.1088031595E-04      39   29    2        -0.6588646350E-03      0.9048635575E-02
          0                 5           1            37   31     2      -0.1364050038E-04      37   31    2        -0.5534207968E-03      0.7628435979E-02
          0                 6           1            37   32     1      -0.7314552435E-05      43   33    2        -0.4393990594E-03      0.6659498778E-02

    ------------------------------------------------
       NWT REQUIRED            6 OUTER ITERATIONS 
       AND A TOTAL OF          6 INNER ITERATIONS.
    ------------------------------------------------

 OUTPUT CONTROL FOR STRESS PERIOD    3   TIME STEP   62
    SAVE HEAD FOR ALL LAYERS
 SOLVING FOR ZETA FOR LAYER     1 ZONE     2

     715 UPPER PART EQS.       731 LOWER PART EQS.    BAND WIDTH + 1 =   37
 STRESS PERIOD=  3 TIMESTEP= 62 LAYER=  1 ZONE=  2 ACTIVE CELLS= 1446 NUMBER OF EQUATIONS=    1446
 SOLVING FOR ZETA FOR LAYER     2 ZONE     2

     635 UPPER PART EQS.       636 LOWER PART EQS.    BAND WIDTH + 1 =   31
 STRESS PERIOD=  3 TIMESTEP= 62 LAYER=  2 ZONE=  2 ACTIVE CELLS= 1271 NUMBER OF EQUATIONS=    1271
 UBUDSV SAVING "      ZETASRF  1" ON UNIT 55 AT TIME STEP 62, STRESS PERIOD    3

 HEAD WILL BE SAVED ON UNIT   51 AT END OF TIME STEP   62, STRESS PERIOD    3
 
 SOLVING FOR HEAD 
                                                   Max.-Head-Change                         Max.-Flux-Residual
  Residual-Control   Outer-Iter.   Inner-Iter.     Column Row Layer    Maximum-Head-Change  Column Row Layer    Maximum-Flux-Residual          L2-NORM 
          0                 1           1            47   36     1      -0.2844542926E-03      47   26    1        -0.2236952326E+00      0.9461208300E+00
          0                 2           1            44   33     1      -0.3419820195E-04      44   37    1        -0.5579065138E-02      0.3289348099E-01
          0                 3           1            41   31     2      -0.2860173190E-04      41   32    1        -0.1425996957E-02      0.1451318746E-01
          0                 4           1            38   30     2      -0.1385679294E-04      44   33    1        -0.1057112912E-02      0.1032767038E-01
          0                 5           1            40   32     2      -0.1571994623E-04      46   31    1        -0.6957981294E-03      0.8650551122E-02
          0                 6           1            37   33     2      -0.8387180587E-05      44   33    1        -0.6670017955E-03      0.7513161094E-02

    ------------------------------------------------
       NWT REQUIRED            6 OUTER ITERATIONS 
       AND A TOTAL OF          6 INNER ITERATIONS.
    ------------------------------------------------

 OUTPUT CONTROL FOR STRESS PERIOD    3   TIME STEP   63
    SAVE HEAD FOR ALL LAYERS
 SOLVING FOR ZETA FOR LAYER     1 ZONE     2

     715 UPPER PART EQS.       727 LOWER PART EQS.    BAND WIDTH + 1 =   33
 STRESS PERIOD=  3 TIMESTEP= 63 LAYER=  1 ZONE=  2 ACTIVE CELLS= 1442 NUMBER OF EQUATIONS=    1442
 SOLVING FOR ZETA FOR LAYER     2 ZONE     2

     635 UPPER PART EQS.       636 LOWER PART EQS.    BAND WIDTH + 1 =   31
 STRESS PERIOD=  3 TIMESTEP= 63 LAYER=  2 ZONE=  2 ACTIVE CELLS= 1271 NUMBER OF EQUATIONS=    1271
 UBUDSV SAVING "      ZETASRF  1" ON UNIT 55 AT TIME STEP 63, STRESS PERIOD    3

 HEAD WILL BE SAVED ON UNIT   51 AT END OF TIME STEP   63, STRESS PERIOD    3
 
 SOLVING FOR HEAD 
                                                   Max.-Head-Change                         Max.-Flux-Residual
  Residual-Control   Outer-Iter.   Inner-Iter.     Column Row Layer    Maximum-Head-Change  Column Row Layer    Maximum-Flux-Residual          L2-NORM 
          0                 1           1            48   26     1      -0.2649571320E-03      47   36    1         0.2156737674E+00      0.7813231817E+00
          0                 2           1            39   29     2      -0.1220280535E-04      50   35    1         0.3769712145E-02      0.2297762399E-01
          0                 3           1            37   31     2      -0.1680661669E-04      37   31    2        -0.7409664894E-03      0.7439995901E-02
          0                 4           1            41   31     2      -0.6189481030E-05      42   26    2        -0.4276451355E-03      0.5280682794E-02

    ------------------------------------------------
       NWT REQUIRED            4 OUTER ITERATIONS 
       AND A TOTAL OF          4 INNER ITERATIONS.
    ------------------------------------------------

 OUTPUT CONTROL FOR STRESS PERIOD    3   TIME STEP   64
    SAVE HEAD FOR ALL LAYERS
 SOLVING FOR ZETA FOR LAYER     1 ZONE     2

     722 UPPER PART EQS.       737 LOWER PART EQS.    BAND WIDTH + 1 =   36
 STRESS PERIOD=  3 TIMESTEP= 64 LAYER=  1 ZONE=  2 ACTIVE CELLS= 1459 NUMBER OF EQUATIONS=    1459
 SOLVING FOR ZETA FOR LAYER     2 ZONE     2

     635 UPPER PART EQS.       636 LOWER PART EQS.    BAND WIDTH + 1 =   31
 STRESS PERIOD=  3 TIMESTEP= 64 LAYER=  2 ZONE=  2 ACTIVE CELLS= 1271 NUMBER OF EQUATIONS=    1271
 UBUDSV SAVING "      ZETASRF  1" ON UNIT 55 AT TIME STEP 64, STRESS PERIOD    3

 HEAD WILL BE SAVED ON UNIT   51 AT END OF TIME STEP   64, STRESS PERIOD    3
 
 SOLVING FOR HEAD 
                                                   Max.-Head-Change                         Max.-Flux-Residual
  Residual-Control   Outer-Iter.   Inner-Iter.     Column Row Layer    Maximum-Head-Change  Column Row Layer    Maximum-Flux-Residual          L2-NORM 
          0                 1           1            15   22     1      -0.3073669652E-03      15   40    1        -0.2451026899E+00      0.7738493566E+00
          0                 2           1            18   39     1      -0.1865477894E-04      18   39    1        -0.4947774408E-02      0.3006826984E-01
          0                 3           1            40   29     1      -0.1485012931E-04      44   33    1        -0.8276366447E-03      0.1249807221E-01
          0                 4           1            38   33     1      -0.9725627182E-05      45   32    1        -0.6036160505E-03      0.8695018863E-02

    ------------------------------------------------
       NWT REQUIRED            4 OUTER ITERATIONS 
       AND A TOTAL OF          4 INNER ITERATIONS.
    ------------------------------------------------

 OUTPUT CONTROL FOR STRESS PERIOD    3   TIME STEP   65
    SAVE HEAD FOR ALL LAYERS
 SOLVING FOR ZETA FOR LAYER     1 ZONE     2

     721 UPPER PART EQS.       727 LOWER PART EQS.    BAND WIDTH + 1 =   28
 STRESS PERIOD=  3 TIMESTEP= 65 LAYER=  1 ZONE=  2 ACTIVE CELLS= 1448 NUMBER OF EQUATIONS=    1448
 SOLVING FOR ZETA FOR LAYER     2 ZONE     2

     635 UPPER PART EQS.       636 LOWER PART EQS.    BAND WIDTH + 1 =   31
 STRESS PERIOD=  3 TIMESTEP= 65 LAYER=  2 ZONE=  2 ACTIVE CELLS= 1271 NUMBER OF EQUATIONS=    1271
 UBUDSV SAVING "      ZETASRF  1" ON UNIT 55 AT TIME STEP 65, STRESS PERIOD    3

 HEAD WILL BE SAVED ON UNIT   51 AT END OF TIME STEP   65, STRESS PERIOD    3
 
 SOLVING FOR HEAD 
                                                   Max.-Head-Change                         Max.-Flux-Residual
  Residual-Control   Outer-Iter.   Inner-Iter.     Column Row Layer    Maximum-Head-Change  Column Row Layer    Maximum-Flux-Residual          L2-NORM 
          0                 1           1            47   34     1      -0.3014315056E-03      15   40    1         0.2346866293E+00      0.9343238810E+00
          0                 2           1            43   30     1      -0.3397013343E-04      44   35    1        -0.6285878776E-02      0.3491599018E-01
          0                 3           1            40   32     2      -0.3158356906E-04      41   31    2        -0.1518001965E-02      0.1490979977E-01
          0                 4           1            37   33     2      -0.1400953125E-04      44   29    1        -0.9345933045E-03      0.1052503963E-01
          0                 5           1            40   32     2      -0.1585258828E-04      46   35    1        -0.6982628205E-03      0.8619166703E-02
          0                 6           1            37   33     2      -0.8476136943E-05      43   30    1        -0.6164329377E-03      0.7334357487E-02

    ------------------------------------------------
       NWT REQUIRED            6 OUTER ITERATIONS 
       AND A TOTAL OF          6 INNER ITERATIONS.
    ------------------------------------------------

 OUTPUT CONTROL FOR STRESS PERIOD    3   TIME STEP   66
    SAVE HEAD FOR ALL LAYERS
 SOLVING FOR ZETA FOR LAYER     1 ZONE     2

     717 UPPER PART EQS.       735 LOWER PART EQS.    BAND WIDTH + 1 =   39
 STRESS PERIOD=  3 TIMESTEP= 66 LAYER=  1 ZONE=  2 ACTIVE CELLS= 1452 NUMBER OF EQUATIONS=    1452
 SOLVING FOR ZETA FOR LAYER     2 ZONE     2

     635 UPPER PART EQS.       636 LOWER PART EQS.    BAND WIDTH + 1 =   31
 STRESS PERIOD=  3 TIMESTEP= 66 LAYER=  2 ZONE=  2 ACTIVE CELLS= 1271 NUMBER OF EQUATIONS=    1271
 UBUDSV SAVING "      ZETASRF  1" ON UNIT 55 AT TIME STEP 66, STRESS PERIOD    3

 HEAD WILL BE SAVED ON UNIT   51 AT END OF TIME STEP   66, STRESS PERIOD    3
 
 SOLVING FOR HEAD 
                                                   Max.-Head-Change                         Max.-Flux-Residual
  Residual-Control   Outer-Iter.   Inner-Iter.     Column Row Layer    Maximum-Head-Change  Column Row Layer    Maximum-Flux-Residual          L2-NORM 
          0                 1           1            25   50     2       0.3305470395E-03      25   12    2         0.3169853224E+00      0.1039067464E+01
          0                 2           1            46   35     1      -0.1367470606E-04      44   35    1         0.4332789108E-02      0.2756709094E-01
          0                 3           1            36   32     2      -0.1322069431E-04      37   31    2        -0.6859686517E-03      0.8763718037E-02
          0                 4           1            41   33     2      -0.7493570338E-05      43   33    2        -0.5038818602E-03      0.6486189266E-02

    ------------------------------------------------
       NWT REQUIRED            4 OUTER ITERATIONS 
       AND A TOTAL OF          4 INNER ITERATIONS.
    ------------------------------------------------

 OUTPUT CONTROL FOR STRESS PERIOD    3   TIME STEP   67
    SAVE HEAD FOR ALL LAYERS
 SOLVING FOR ZETA FOR LAYER     1 ZONE     2

     717 UPPER PART EQS.       733 LOWER PART EQS.    BAND WIDTH + 1 =   37
 STRESS PERIOD=  3 TIMESTEP= 67 LAYER=  1 ZONE=  2 ACTIVE CELLS= 1450 NUMBER OF EQUATIONS=    1450
 SOLVING FOR ZETA FOR LAYER     2 ZONE     2

     635 UPPER PART EQS.       638 LOWER PART EQS.    BAND WIDTH + 1 =   31
 STRESS PERIOD=  3 TIMESTEP= 67 LAYER=  2 ZONE=  2 ACTIVE CELLS= 1273 NUMBER OF EQUATIONS=    1273
 UBUDSV SAVING "      ZETASRF  1" ON UNIT 55 AT TIME STEP 67, STRESS PERIOD    3

 HEAD WILL BE SAVED ON UNIT   51 AT END OF TIME STEP   67, STRESS PERIOD    3
 
 SOLVING FOR HEAD 
                                                   Max.-Head-Change                         Max.-Flux-Residual
  Residual-Control   Outer-Iter.   Inner-Iter.     Column Row Layer    Maximum-Head-Change  Column Row Layer    Maximum-Flux-Residual          L2-NORM 
          0                 1           1            38   15     1      -0.2470003032E-03      38   15    1        -0.1983214954E+00      0.7585266780E+00
          0                 2           1            41   20     1      -0.1679651942E-04      35   48    1        -0.4003875097E-02      0.2763419332E-01
          0                 3           1            40   31     1      -0.1902664673E-04      37   31    2        -0.9012842318E-03      0.1227175211E-01
          0                 4           1            39   29     2      -0.1080425322E-04      39   29    2        -0.6941385657E-03      0.8762836030E-02
          0                 5           1            37   31     2      -0.1314524676E-04      37   31    2        -0.5631292632E-03      0.7320925191E-02
          0                 6           1            38   33     1      -0.7012987915E-05      33   31    2        -0.5001789327E-03      0.6354961205E-02

    ------------------------------------------------
       NWT REQUIRED            6 OUTER ITERATIONS 
       AND A TOTAL OF          6 INNER ITERATIONS.
    ------------------------------------------------

 OUTPUT CONTROL FOR STRESS PERIOD    3   TIME STEP   68
    SAVE HEAD FOR ALL LAYERS
 SOLVING FOR ZETA FOR LAYER     1 ZONE     2

     721 UPPER PART EQS.       729 LOWER PART EQS.    BAND WIDTH + 1 =   29
 STRESS PERIOD=  3 TIMESTEP= 68 LAYER=  1 ZONE=  2 ACTIVE CELLS= 1450 NUMBER OF EQUATIONS=    1450
 SOLVING FOR ZETA FOR LAYER     2 ZONE     2

     635 UPPER PART EQS.       638 LOWER PART EQS.    BAND WIDTH + 1 =   31
 STRESS PERIOD=  3 TIMESTEP= 68 LAYER=  2 ZONE=  2 ACTIVE CELLS= 1273 NUMBER OF EQUATIONS=    1273
 UBUDSV SAVING "      ZETASRF  1" ON UNIT 55 AT TIME STEP 68, STRESS PERIOD    3

 HEAD WILL BE SAVED ON UNIT   51 AT END OF TIME STEP   68, STRESS PERIOD    3
 
 SOLVING FOR HEAD 
                                                   Max.-Head-Change                         Max.-Flux-Residual
  Residual-Control   Outer-Iter.   Inner-Iter.     Column Row Layer    Maximum-Head-Change  Column Row Layer    Maximum-Flux-Residual          L2-NORM 
          0                 1           1            22   15     1      -0.3279556281E-03      22   47    1        -0.2667968617E+00      0.9323839970E+00
          0                 2           1            43   28     1      -0.2156704241E-04      19   48    1        -0.4932045446E-02      0.3097154894E-01
          0                 3           1            40   31     1      -0.2251933907E-04      45   28    1        -0.1133641101E-02      0.1244603517E-01
          0                 4           1            37   32     1      -0.1132694834E-04      39   29    2        -0.6904518343E-03      0.8670496551E-02
          0                 5           1            37   31     2      -0.1258116076E-04      37   31    2        -0.5529209130E-03      0.7269657305E-02
          0                 6           1            35   33     2      -0.7439688604E-05      43   29    2        -0.4360398834E-03      0.6339564854E-02

    ------------------------------------------------
       NWT REQUIRED            6 OUTER ITERATIONS 
       AND A TOTAL OF          6 INNER ITERATIONS.
    ------------------------------------------------

 OUTPUT CONTROL FOR STRESS PERIOD    3   TIME STEP   69
    SAVE HEAD FOR ALL LAYERS
 SOLVING FOR ZETA FOR LAYER     1 ZONE     2

     719 UPPER PART EQS.       731 LOWER PART EQS.    BAND WIDTH + 1 =   33
 STRESS PERIOD=  3 TIMESTEP= 69 LAYER=  1 ZONE=  2 ACTIVE CELLS= 1450 NUMBER OF EQUATIONS=    1450
 SOLVING FOR ZETA FOR LAYER     2 ZONE     2

     635 UPPER PART EQS.       638 LOWER PART EQS.    BAND WIDTH + 1 =   31
 STRESS PERIOD=  3 TIMESTEP= 69 LAYER=  2 ZONE=  2 ACTIVE CELLS= 1273 NUMBER OF EQUATIONS=    1273
 UBUDSV SAVING "      ZETASRF  1" ON UNIT 55 AT TIME STEP 69, STRESS PERIOD    3

 HEAD WILL BE SAVED ON UNIT   51 AT END OF TIME STEP   69, STRESS PERIOD    3
 
 SOLVING FOR HEAD 
                                                   Max.-Head-Change                         Max.-Flux-Residual
  Residual-Control   Outer-Iter.   Inner-Iter.     Column Row Layer    Maximum-Head-Change  Column Row Layer    Maximum-Flux-Residual          L2-NORM 
          0                 1           1            22   47     1       0.2982446797E-03      22   47    1         0.2573807304E+00      0.8763056056E+00
          0                 2           1            44   33     1      -0.2337239675E-04      19   48    1         0.4941169172E-02      0.2677116414E-01
          0                 3           1            41   32     1      -0.2130066882E-04      41   32    1        -0.1021696692E-02      0.1067133775E-01
          0                 4           1            39   29     2      -0.9509455108E-05      44   33    1        -0.9347813826E-03      0.7548216348E-02

    ------------------------------------------------
       NWT REQUIRED            4 OUTER ITERATIONS 
       AND A TOTAL OF          4 INNER ITERATIONS.
    ------------------------------------------------

 OUTPUT CONTROL FOR STRESS PERIOD    3   TIME STEP   70
    SAVE HEAD FOR ALL LAYERS
 SOLVING FOR ZETA FOR LAYER     1 ZONE     2

     721 UPPER PART EQS.       735 LOWER PART EQS.    BAND WIDTH + 1 =   35
 STRESS PERIOD=  3 TIMESTEP= 70 LAYER=  1 ZONE=  2 ACTIVE CELLS= 1456 NUMBER OF EQUATIONS=    1456
 SOLVING FOR ZETA FOR LAYER     2 ZONE     2

     635 UPPER PART EQS.       638 LOWER PART EQS.    BAND WIDTH + 1 =   31
 STRESS PERIOD=  3 TIMESTEP= 70 LAYER=  2 ZONE=  2 ACTIVE CELLS= 1273 NUMBER OF EQUATIONS=    1273
 UBUDSV SAVING "      ZETASRF  1" ON UNIT 55 AT TIME STEP 70, STRESS PERIOD    3

 HEAD WILL BE SAVED ON UNIT   51 AT END OF TIME STEP   70, STRESS PERIOD    3
 
 SOLVING FOR HEAD 
                                                   Max.-Head-Change                         Max.-Flux-Residual
  Residual-Control   Outer-Iter.   Inner-Iter.     Column Row Layer    Maximum-Head-Change  Column Row Layer    Maximum-Flux-Residual          L2-NORM 
          0                 1           1            15   23     1      -0.2228301877E-03      47   31    1        -0.1807036099E+00      0.8052193002E+00
          0                 2           1            39   29     2      -0.1633441367E-04      11   40    1         0.3962808981E-02      0.2685842906E-01
          0                 3           1            37   31     2      -0.1782795234E-04      37   31    2        -0.9118532558E-03      0.1155812942E-01
          0                 4           1            38   33     1      -0.9611708055E-05      32   32    2        -0.6555080799E-03      0.8315458355E-02

    ------------------------------------------------
       NWT REQUIRED            4 OUTER ITERATIONS 
       AND A TOTAL OF          4 INNER ITERATIONS.
    ------------------------------------------------

 OUTPUT CONTROL FOR STRESS PERIOD    3   TIME STEP   71
    SAVE HEAD FOR ALL LAYERS
 SOLVING FOR ZETA FOR LAYER     1 ZONE     2

     714 UPPER PART EQS.       731 LOWER PART EQS.    BAND WIDTH + 1 =   38
 STRESS PERIOD=  3 TIMESTEP= 71 LAYER=  1 ZONE=  2 ACTIVE CELLS= 1445 NUMBER OF EQUATIONS=    1445
 SOLVING FOR ZETA FOR LAYER     2 ZONE     2

     635 UPPER PART EQS.       638 LOWER PART EQS.    BAND WIDTH + 1 =   31
 STRESS PERIOD=  3 TIMESTEP= 71 LAYER=  2 ZONE=  2 ACTIVE CELLS= 1273 NUMBER OF EQUATIONS=    1273
 UBUDSV SAVING "      ZETASRF  1" ON UNIT 55 AT TIME STEP 71, STRESS PERIOD    3

 HEAD WILL BE SAVED ON UNIT   51 AT END OF TIME STEP   71, STRESS PERIOD    3
 
 SOLVING FOR HEAD 
                                                   Max.-Head-Change                         Max.-Flux-Residual
  Residual-Control   Outer-Iter.   Inner-Iter.     Column Row Layer    Maximum-Head-Change  Column Row Layer    Maximum-Flux-Residual          L2-NORM 
          0                 1           1            15   40     1      -0.2473889840E-03      15   22    1        -0.2486177272E+00      0.8655780920E+00
          0                 2           1            39   29     2      -0.1531310963E-04      12   41    1        -0.4215674894E-02      0.2557986531E-01
          0                 3           1            37   31     2      -0.2058873823E-04      37   31    2        -0.9155397101E-03      0.1021347398E-01
          0                 4           1            38   33     1      -0.8596671624E-05      41   31    2        -0.5876644748E-03      0.7353605384E-02

    ------------------------------------------------
       NWT REQUIRED            4 OUTER ITERATIONS 
       AND A TOTAL OF          4 INNER ITERATIONS.
    ------------------------------------------------

 OUTPUT CONTROL FOR STRESS PERIOD    3   TIME STEP   72
    SAVE HEAD FOR ALL LAYERS
 SOLVING FOR ZETA FOR LAYER     1 ZONE     2

     721 UPPER PART EQS.       733 LOWER PART EQS.    BAND WIDTH + 1 =   33
 STRESS PERIOD=  3 TIMESTEP= 72 LAYER=  1 ZONE=  2 ACTIVE CELLS= 1454 NUMBER OF EQUATIONS=    1454
 SOLVING FOR ZETA FOR LAYER     2 ZONE     2

     635 UPPER PART EQS.       638 LOWER PART EQS.    BAND WIDTH + 1 =   31
 STRESS PERIOD=  3 TIMESTEP= 72 LAYER=  2 ZONE=  2 ACTIVE CELLS= 1273 NUMBER OF EQUATIONS=    1273
 UBUDSV SAVING "      ZETASRF  1" ON UNIT 55 AT TIME STEP 72, STRESS PERIOD    3

 HEAD WILL BE SAVED ON UNIT   51 AT END OF TIME STEP   72, STRESS PERIOD    3
 
 SOLVING FOR HEAD 
                                                   Max.-Head-Change                         Max.-Flux-Residual
  Residual-Control   Outer-Iter.   Inner-Iter.     Column Row Layer    Maximum-Head-Change  Column Row Layer    Maximum-Flux-Residual          L2-NORM 
          0                 1           1            15   22     1       0.2828241967E-03      15   22    1         0.2385853845E+00      0.7038696936E+00
          0                 2           1            39   29     2      -0.1824872165E-04      18   39    1         0.4052939476E-02      0.2899213240E-01
          0                 3           1            40   31     1      -0.2080063354E-04      37   31    2        -0.1002274038E-02      0.1320776772E-01
          0                 4           1            39   29     2      -0.1138018168E-04      39   29    2        -0.7676583028E-03      0.9313627470E-02
          0                 5           1            37   31     2      -0.1333134198E-04      37   31    2        -0.6082182296E-03      0.7522943528E-02
          0                 6           1            38   33     1      -0.7277650063E-05      32   32    2        -0.5147654992E-03      0.6335409814E-02

    ------------------------------------------------
       NWT REQUIRED            6 OUTER ITERATIONS 
       AND A TOTAL OF          6 INNER ITERATIONS.
    ------------------------------------------------

 OUTPUT CONTROL FOR STRESS PERIOD    3   TIME STEP   73
    SAVE HEAD FOR ALL LAYERS
 SOLVING FOR ZETA FOR LAYER     1 ZONE     2

     725 UPPER PART EQS.       731 LOWER PART EQS.    BAND WIDTH + 1 =   27
 STRESS PERIOD=  3 TIMESTEP= 73 LAYER=  1 ZONE=  2 ACTIVE CELLS= 1456 NUMBER OF EQUATIONS=    1456
 SOLVING FOR ZETA FOR LAYER     2 ZONE     2

     635 UPPER PART EQS.       638 LOWER PART EQS.    BAND WIDTH + 1 =   31
 STRESS PERIOD=  3 TIMESTEP= 73 LAYER=  2 ZONE=  2 ACTIVE CELLS= 1273 NUMBER OF EQUATIONS=    1273
 UBUDSV SAVING "      ZETASRF  1" ON UNIT 55 AT TIME STEP 73, STRESS PERIOD    3

 HEAD WILL BE SAVED ON UNIT   51 AT END OF TIME STEP   73, STRESS PERIOD    3
 
 SOLVING FOR HEAD 
                                                   Max.-Head-Change                         Max.-Flux-Residual
  Residual-Control   Outer-Iter.   Inner-Iter.     Column Row Layer    Maximum-Head-Change  Column Row Layer    Maximum-Flux-Residual          L2-NORM 
          0                 1           1            38   15     1      -0.2885381938E-03      38   47    1        -0.2034861344E+00      0.8007385477E+00
          0                 2           1            43   32     1      -0.2468727707E-04      35   48    1        -0.5087937550E-02      0.2991631186E-01
          0                 3           1            40   32     2      -0.2368352671E-04      41   32    1        -0.1203738083E-02      0.1325680399E-01
          0                 4           1            37   32     1      -0.1192207829E-04      39   29    2        -0.7741072671E-03      0.9620665062E-02
          0                 5           1            37   31     2      -0.1426817704E-04      37   31    2        -0.6074833383E-03      0.8115857451E-02
          0                 6           1            34   32     2      -0.7929829165E-05      43   33    2        -0.5288448913E-03      0.7132005703E-02

    ------------------------------------------------
       NWT REQUIRED            6 OUTER ITERATIONS 
       AND A TOTAL OF          6 INNER ITERATIONS.
    ------------------------------------------------

 OUTPUT CONTROL FOR STRESS PERIOD    3   TIME STEP   74
    SAVE HEAD FOR ALL LAYERS
 SOLVING FOR ZETA FOR LAYER     1 ZONE     2

     713 UPPER PART EQS.       733 LOWER PART EQS.    BAND WIDTH + 1 =   41
 STRESS PERIOD=  3 TIMESTEP= 74 LAYER=  1 ZONE=  2 ACTIVE CELLS= 1446 NUMBER OF EQUATIONS=    1446
 SOLVING FOR ZETA FOR LAYER     2 ZONE     2

     635 UPPER PART EQS.       638 LOWER PART EQS.    BAND WIDTH + 1 =   31
 STRESS PERIOD=  3 TIMESTEP= 74 LAYER=  2 ZONE=  2 ACTIVE CELLS= 1273 NUMBER OF EQUATIONS=    1273
 UBUDSV SAVING "      ZETASRF  1" ON UNIT 55 AT TIME STEP 74, STRESS PERIOD    3

 HEAD WILL BE SAVED ON UNIT   51 AT END OF TIME STEP   74, STRESS PERIOD    3
 
 SOLVING FOR HEAD 
                                                   Max.-Head-Change                         Max.-Flux-Residual
  Residual-Control   Outer-Iter.   Inner-Iter.     Column Row Layer    Maximum-Head-Change  Column Row Layer    Maximum-Flux-Residual          L2-NORM 
          0                 1           1            38   47     1       0.2700751319E-03      47   34    1        -0.2059122364E+00      0.9939460843E+00
          0                 2           1            45   30     1      -0.1885445449E-04      35   48    1         0.4586494539E-02      0.2787786384E-01
          0                 3           1            41   30     1      -0.1962685854E-04      42   31    1        -0.1033774660E-02      0.1103840177E-01
          0                 4           1            38   33     1      -0.9769612930E-05      44   29    1        -0.6605484232E-03      0.7967200315E-02

    ------------------------------------------------
       NWT REQUIRED            4 OUTER ITERATIONS 
       AND A TOTAL OF          4 INNER ITERATIONS.
    ------------------------------------------------

 OUTPUT CONTROL FOR STRESS PERIOD    3   TIME STEP   75
    SAVE HEAD FOR ALL LAYERS
 SOLVING FOR ZETA FOR LAYER     1 ZONE     2

     717 UPPER PART EQS.       729 LOWER PART EQS.    BAND WIDTH + 1 =   33
 STRESS PERIOD=  3 TIMESTEP= 75 LAYER=  1 ZONE=  2 ACTIVE CELLS= 1446 NUMBER OF EQUATIONS=    1446
 SOLVING FOR ZETA FOR LAYER     2 ZONE     2

     635 UPPER PART EQS.       638 LOWER PART EQS.    BAND WIDTH + 1 =   31
 STRESS PERIOD=  3 TIMESTEP= 75 LAYER=  2 ZONE=  2 ACTIVE CELLS= 1273 NUMBER OF EQUATIONS=    1273
 UBUDSV SAVING "      ZETASRF  1" ON UNIT 55 AT TIME STEP 75, STRESS PERIOD    3

 HEAD WILL BE SAVED ON UNIT   51 AT END OF TIME STEP   75, STRESS PERIOD    3
 
 SOLVING FOR HEAD 
                                                   Max.-Head-Change                         Max.-Flux-Residual
  Residual-Control   Outer-Iter.   Inner-Iter.     Column Row Layer    Maximum-Head-Change  Column Row Layer    Maximum-Flux-Residual          L2-NORM 
          0                 1           1            48   28     1      -0.2440510396E-03      47   34    1         0.1985931352E+00      0.7599390843E+00
          0                 2           1            39   29     2      -0.1543506180E-04      19   18    1         0.3502620233E-02      0.2595756305E-01
          0                 3           1            37   31     2      -0.1915178294E-04      37   31    2        -0.9214627966E-03      0.9958203716E-02
          0                 4           1            41   31     2      -0.8180045774E-05      32   32    2        -0.6004121524E-03      0.6852727303E-02

    ------------------------------------------------
       NWT REQUIRED            4 OUTER ITERATIONS 
       AND A TOTAL OF          4 INNER ITERATIONS.
    ------------------------------------------------

 OUTPUT CONTROL FOR STRESS PERIOD    3   TIME STEP   76
    SAVE HEAD FOR ALL LAYERS
 SOLVING FOR ZETA FOR LAYER     1 ZONE     2

     723 UPPER PART EQS.       737 LOWER PART EQS.    BAND WIDTH + 1 =   35
 STRESS PERIOD=  3 TIMESTEP= 76 LAYER=  1 ZONE=  2 ACTIVE CELLS= 1460 NUMBER OF EQUATIONS=    1460
 SOLVING FOR ZETA FOR LAYER     2 ZONE     2

     635 UPPER PART EQS.       638 LOWER PART EQS.    BAND WIDTH + 1 =   31
 STRESS PERIOD=  3 TIMESTEP= 76 LAYER=  2 ZONE=  2 ACTIVE CELLS= 1273 NUMBER OF EQUATIONS=    1273
 UBUDSV SAVING "      ZETASRF  1" ON UNIT 55 AT TIME STEP 76, STRESS PERIOD    3

 HEAD WILL BE SAVED ON UNIT   51 AT END OF TIME STEP   76, STRESS PERIOD    3
 
 SOLVING FOR HEAD 
                                                   Max.-Head-Change                         Max.-Flux-Residual
  Residual-Control   Outer-Iter.   Inner-Iter.     Column Row Layer    Maximum-Head-Change  Column Row Layer    Maximum-Flux-Residual          L2-NORM 
          0                 1           1            22   15     1      -0.3216176200E-03      22   47    1        -0.2715886217E+00      0.7168650698E+00
          0                 2           1            39   29     2      -0.1801200134E-04      19   48    1        -0.5045901851E-02      0.2789905149E-01
          0                 3           1            40   31     1      -0.1691436106E-04      37   31    2        -0.9846377768E-03      0.1204066220E-01
          0                 4           1            39   29     2      -0.1056269874E-04      39   29    2        -0.7077940124E-03      0.8523226244E-02
          0                 5           1            37   31     2      -0.1173169234E-04      37   31    2        -0.5677498146E-03      0.7158403489E-02
          0                 6           1            34   32     2      -0.7665630667E-05      34   34    2        -0.4427681740E-03      0.6296702753E-02

    ------------------------------------------------
       NWT REQUIRED            6 OUTER ITERATIONS 
       AND A TOTAL OF          6 INNER ITERATIONS.
    ------------------------------------------------

 OUTPUT CONTROL FOR STRESS PERIOD    3   TIME STEP   77
    SAVE HEAD FOR ALL LAYERS
 SOLVING FOR ZETA FOR LAYER     1 ZONE     2

     721 UPPER PART EQS.       730 LOWER PART EQS.    BAND WIDTH + 1 =   30
 STRESS PERIOD=  3 TIMESTEP= 77 LAYER=  1 ZONE=  2 ACTIVE CELLS= 1451 NUMBER OF EQUATIONS=    1451
 SOLVING FOR ZETA FOR LAYER     2 ZONE     2

     635 UPPER PART EQS.       638 LOWER PART EQS.    BAND WIDTH + 1 =   31
 STRESS PERIOD=  3 TIMESTEP= 77 LAYER=  2 ZONE=  2 ACTIVE CELLS= 1273 NUMBER OF EQUATIONS=    1273
 UBUDSV SAVING "      ZETASRF  1" ON UNIT 55 AT TIME STEP 77, STRESS PERIOD    3

 HEAD WILL BE SAVED ON UNIT   51 AT END OF TIME STEP   77, STRESS PERIOD    3
 
 SOLVING FOR HEAD 
                                                   Max.-Head-Change                         Max.-Flux-Residual
  Residual-Control   Outer-Iter.   Inner-Iter.     Column Row Layer    Maximum-Head-Change  Column Row Layer    Maximum-Flux-Residual          L2-NORM 
          0                 1           1            22   47     1       0.2976982691E-03      22   15    1         0.2620921619E+00      0.7578303332E+00
          0                 2           1            39   29     2      -0.1691063409E-04      19   48    1         0.4981474245E-02      0.2456633056E-01
          0                 3           1            40   31     1      -0.2048512702E-04      37   31    2        -0.9701124040E-03      0.1065937516E-01
          0                 4           1            39   29     2      -0.9345159646E-05      39   29    2        -0.6727102847E-03      0.7518195669E-02

    ------------------------------------------------
       NWT REQUIRED            4 OUTER ITERATIONS 
       AND A TOTAL OF          4 INNER ITERATIONS.
    ------------------------------------------------

 OUTPUT CONTROL FOR STRESS PERIOD    3   TIME STEP   78
    SAVE HEAD FOR ALL LAYERS
 SOLVING FOR ZETA FOR LAYER     1 ZONE     2

     721 UPPER PART EQS.       736 LOWER PART EQS.    BAND WIDTH + 1 =   36
 STRESS PERIOD=  3 TIMESTEP= 78 LAYER=  1 ZONE=  2 ACTIVE CELLS= 1457 NUMBER OF EQUATIONS=    1457
 SOLVING FOR ZETA FOR LAYER     2 ZONE     2

     635 UPPER PART EQS.       638 LOWER PART EQS.    BAND WIDTH + 1 =   31
 STRESS PERIOD=  3 TIMESTEP= 78 LAYER=  2 ZONE=  2 ACTIVE CELLS= 1273 NUMBER OF EQUATIONS=    1273
 UBUDSV SAVING "      ZETASRF  1" ON UNIT 55 AT TIME STEP 78, STRESS PERIOD    3

 HEAD WILL BE SAVED ON UNIT   51 AT END OF TIME STEP   78, STRESS PERIOD    3
 
 SOLVING FOR HEAD 
                                                   Max.-Head-Change                         Max.-Flux-Residual
  Residual-Control   Outer-Iter.   Inner-Iter.     Column Row Layer    Maximum-Head-Change  Column Row Layer    Maximum-Flux-Residual          L2-NORM 
          0                 1           1            14   40     1       0.3443963788E-03      15   40    1        -0.2518368470E+00      0.9553995001E+00
          0                 2           1            44   33     1      -0.3050748623E-04      44   33    1        -0.5639445597E-02      0.3343489566E-01
          0                 3           1            41   31     2      -0.2625535158E-04      41   32    1        -0.1376322888E-02      0.1417769563E-01
          0                 4           1            38   30     2      -0.1263602550E-04      44   33    1        -0.1011749099E-02      0.1010545256E-01
          0                 5           1            37   31     2      -0.1511592268E-04      46   31    1        -0.6654906052E-03      0.8558655882E-02
          0                 6           1            34   32     2      -0.8296445664E-05      44   33    1        -0.6694170042E-03      0.7504977252E-02

    ------------------------------------------------
       NWT REQUIRED            6 OUTER ITERATIONS 
       AND A TOTAL OF          6 INNER ITERATIONS.
    ------------------------------------------------

 OUTPUT CONTROL FOR STRESS PERIOD    3   TIME STEP   79
    SAVE HEAD FOR ALL LAYERS
 SOLVING FOR ZETA FOR LAYER     1 ZONE     2

     717 UPPER PART EQS.       729 LOWER PART EQS.    BAND WIDTH + 1 =   33
 STRESS PERIOD=  3 TIMESTEP= 79 LAYER=  1 ZONE=  2 ACTIVE CELLS= 1446 NUMBER OF EQUATIONS=    1446
 SOLVING FOR ZETA FOR LAYER     2 ZONE     2

     635 UPPER PART EQS.       638 LOWER PART EQS.    BAND WIDTH + 1 =   31
 STRESS PERIOD=  3 TIMESTEP= 79 LAYER=  2 ZONE=  2 ACTIVE CELLS= 1273 NUMBER OF EQUATIONS=    1273
 UBUDSV SAVING "      ZETASRF  1" ON UNIT 55 AT TIME STEP 79, STRESS PERIOD    3

 HEAD WILL BE SAVED ON UNIT   51 AT END OF TIME STEP   79, STRESS PERIOD    3
 
 SOLVING FOR HEAD 
                                                   Max.-Head-Change                         Max.-Flux-Residual
  Residual-Control   Outer-Iter.   Inner-Iter.     Column Row Layer    Maximum-Head-Change  Column Row Layer    Maximum-Flux-Residual          L2-NORM 
          0                 1           1            14   40     1      -0.3272275879E-03      15   22    1         0.2423886815E+00      0.1017569603E+01
          0                 2           1            39   29     2      -0.1615697639E-04      11   24    1        -0.4589305212E-02      0.3030099701E-01
          0                 3           1            37   31     2      -0.2003626035E-04      37   31    2        -0.9686428855E-03      0.1085581539E-01
          0                 4           1            38   33     1      -0.9302930627E-05      45   31    2        -0.5836245531E-03      0.7613886807E-02

    ------------------------------------------------
       NWT REQUIRED            4 OUTER ITERATIONS 
       AND A TOTAL OF          4 INNER ITERATIONS.
    ------------------------------------------------

 OUTPUT CONTROL FOR STRESS PERIOD    3   TIME STEP   80
    SAVE HEAD FOR ALL LAYERS
 SOLVING FOR ZETA FOR LAYER     1 ZONE     2

     722 UPPER PART EQS.       733 LOWER PART EQS.    BAND WIDTH + 1 =   32
 STRESS PERIOD=  3 TIMESTEP= 80 LAYER=  1 ZONE=  2 ACTIVE CELLS= 1455 NUMBER OF EQUATIONS=    1455
 SOLVING FOR ZETA FOR LAYER     2 ZONE     2

     635 UPPER PART EQS.       638 LOWER PART EQS.    BAND WIDTH + 1 =   31
 STRESS PERIOD=  3 TIMESTEP= 80 LAYER=  2 ZONE=  2 ACTIVE CELLS= 1273 NUMBER OF EQUATIONS=    1273
 UBUDSV SAVING "      ZETASRF  1" ON UNIT 55 AT TIME STEP 80, STRESS PERIOD    3

 HEAD WILL BE SAVED ON UNIT   51 AT END OF TIME STEP   80, STRESS PERIOD    3
 
 SOLVING FOR HEAD 
                                                   Max.-Head-Change                         Max.-Flux-Residual
  Residual-Control   Outer-Iter.   Inner-Iter.     Column Row Layer    Maximum-Head-Change  Column Row Layer    Maximum-Flux-Residual          L2-NORM 
          0                 1           1            48   31     1      -0.2309878022E-03      38   47    1         0.2006521292E+00      0.7357858460E+00
          0                 2           1            39   29     2      -0.1637569683E-04      22   15    1         0.4639855886E-02      0.2544160303E-01
          0                 3           1            37   31     2      -0.2026603359E-04      37   31    2        -0.9705999787E-03      0.1060902391E-01
          0                 4           1            39   29     2      -0.8813106071E-05      41   31    2        -0.6331813491E-03      0.7548227117E-02

    ------------------------------------------------
       NWT REQUIRED            4 OUTER ITERATIONS 
       AND A TOTAL OF          4 INNER ITERATIONS.
    ------------------------------------------------

 OUTPUT CONTROL FOR STRESS PERIOD    3   TIME STEP   81
    SAVE HEAD FOR ALL LAYERS
 SOLVING FOR ZETA FOR LAYER     1 ZONE     2

     725 UPPER PART EQS.       730 LOWER PART EQS.    BAND WIDTH + 1 =   26
 STRESS PERIOD=  3 TIMESTEP= 81 LAYER=  1 ZONE=  2 ACTIVE CELLS= 1455 NUMBER OF EQUATIONS=    1455
 SOLVING FOR ZETA FOR LAYER     2 ZONE     2

     635 UPPER PART EQS.       638 LOWER PART EQS.    BAND WIDTH + 1 =   31
 STRESS PERIOD=  3 TIMESTEP= 81 LAYER=  2 ZONE=  2 ACTIVE CELLS= 1273 NUMBER OF EQUATIONS=    1273
 UBUDSV SAVING "      ZETASRF  1" ON UNIT 55 AT TIME STEP 81, STRESS PERIOD    3

 HEAD WILL BE SAVED ON UNIT   51 AT END OF TIME STEP   81, STRESS PERIOD    3
 
 SOLVING FOR HEAD 
                                                   Max.-Head-Change                         Max.-Flux-Residual
  Residual-Control   Outer-Iter.   Inner-Iter.     Column Row Layer    Maximum-Head-Change  Column Row Layer    Maximum-Flux-Residual          L2-NORM 
          0                 1           1            36   31     2      -0.2095920847E-03      37   15    1        -0.1477260059E+00      0.5956020593E+00
          0                 2           1            39   29     2      -0.1853785845E-04      34   49    1         0.2587722302E-02      0.2194067270E-01
          0                 3           1            37   31     2      -0.2161053537E-04      37   31    2        -0.1055759617E-02      0.1046381655E-01
          0                 4           1            39   29     2      -0.9273258365E-05      39   29    2        -0.7173630323E-03      0.7469816979E-02

    ------------------------------------------------
       NWT REQUIRED            4 OUTER ITERATIONS 
       AND A TOTAL OF          4 INNER ITERATIONS.
    ------------------------------------------------

 OUTPUT CONTROL FOR STRESS PERIOD    3   TIME STEP   82
    SAVE HEAD FOR ALL LAYERS
 SOLVING FOR ZETA FOR LAYER     1 ZONE     2

     721 UPPER PART EQS.       736 LOWER PART EQS.    BAND WIDTH + 1 =   36
 STRESS PERIOD=  3 TIMESTEP= 82 LAYER=  1 ZONE=  2 ACTIVE CELLS= 1457 NUMBER OF EQUATIONS=    1457
 SOLVING FOR ZETA FOR LAYER     2 ZONE     2

     635 UPPER PART EQS.       638 LOWER PART EQS.    BAND WIDTH + 1 =   31
 STRESS PERIOD=  3 TIMESTEP= 82 LAYER=  2 ZONE=  2 ACTIVE CELLS= 1273 NUMBER OF EQUATIONS=    1273
 UBUDSV SAVING "      ZETASRF  1" ON UNIT 55 AT TIME STEP 82, STRESS PERIOD    3

 HEAD WILL BE SAVED ON UNIT   51 AT END OF TIME STEP   82, STRESS PERIOD    3
 
 SOLVING FOR HEAD 
                                                   Max.-Head-Change                         Max.-Flux-Residual
  Residual-Control   Outer-Iter.   Inner-Iter.     Column Row Layer    Maximum-Head-Change  Column Row Layer    Maximum-Flux-Residual          L2-NORM 
          0                 1           1            36   31     2      -0.2141141326E-03      23   47    1        -0.1823927521E+00      0.7505682382E+00
          0                 2           1            39   29     2      -0.1887166381E-04      19   18    1        -0.3662907330E-02      0.2610885641E-01
          0                 3           1            37   31     2      -0.2025694316E-04      37   31    2        -0.1066451719E-02      0.1194949881E-01
          0                 4           1            39   29     2      -0.1068263432E-04      39   29    2        -0.7441252548E-03      0.8703741696E-02
          0                 5           1            37   31     2      -0.1311746780E-04      37   31    2        -0.5985339245E-03      0.7409771906E-02
          0                 6           1            34   32     2      -0.7645345152E-05      39   29    2        -0.4614848658E-03      0.6527175694E-02

    ------------------------------------------------
       NWT REQUIRED            6 OUTER ITERATIONS 
       AND A TOTAL OF          6 INNER ITERATIONS.
    ------------------------------------------------

 OUTPUT CONTROL FOR STRESS PERIOD    3   TIME STEP   83
    SAVE HEAD FOR ALL LAYERS
 SOLVING FOR ZETA FOR LAYER     1 ZONE     2

     719 UPPER PART EQS.       731 LOWER PART EQS.    BAND WIDTH + 1 =   33
 STRESS PERIOD=  3 TIMESTEP= 83 LAYER=  1 ZONE=  2 ACTIVE CELLS= 1450 NUMBER OF EQUATIONS=    1450
 SOLVING FOR ZETA FOR LAYER     2 ZONE     2

     635 UPPER PART EQS.       638 LOWER PART EQS.    BAND WIDTH + 1 =   31
 STRESS PERIOD=  3 TIMESTEP= 83 LAYER=  2 ZONE=  2 ACTIVE CELLS= 1273 NUMBER OF EQUATIONS=    1273
 UBUDSV SAVING "      ZETASRF  1" ON UNIT 55 AT TIME STEP 83, STRESS PERIOD    3

 HEAD WILL BE SAVED ON UNIT   51 AT END OF TIME STEP   83, STRESS PERIOD    3
 
 SOLVING FOR HEAD 
                                                   Max.-Head-Change                         Max.-Flux-Residual
  Residual-Control   Outer-Iter.   Inner-Iter.     Column Row Layer    Maximum-Head-Change  Column Row Layer    Maximum-Flux-Residual          L2-NORM 
          0                 1           1            36   31     2      -0.2174632115E-03      23   15    1         0.1736934218E+00      0.6377780526E+00
          0                 2           1            39   29     2      -0.1694755803E-04      26   47    1        -0.3183599499E-02      0.2357040861E-01
          0                 3           1            37   31     2      -0.2050743775E-04      37   31    2        -0.9954164995E-03      0.9845817946E-02
          0                 4           1            39   29     2      -0.8489332896E-05      39   29    2        -0.6263651301E-03      0.6848259714E-02

    ------------------------------------------------
       NWT REQUIRED            4 OUTER ITERATIONS 
       AND A TOTAL OF          4 INNER ITERATIONS.
    ------------------------------------------------

 OUTPUT CONTROL FOR STRESS PERIOD    3   TIME STEP   84
    SAVE HEAD FOR ALL LAYERS
 SOLVING FOR ZETA FOR LAYER     1 ZONE     2

     723 UPPER PART EQS.       735 LOWER PART EQS.    BAND WIDTH + 1 =   33
 STRESS PERIOD=  3 TIMESTEP= 84 LAYER=  1 ZONE=  2 ACTIVE CELLS= 1458 NUMBER OF EQUATIONS=    1458
 SOLVING FOR ZETA FOR LAYER     2 ZONE     2

     635 UPPER PART EQS.       638 LOWER PART EQS.    BAND WIDTH + 1 =   31
 STRESS PERIOD=  3 TIMESTEP= 84 LAYER=  2 ZONE=  2 ACTIVE CELLS= 1273 NUMBER OF EQUATIONS=    1273
 UBUDSV SAVING "      ZETASRF  1" ON UNIT 55 AT TIME STEP 84, STRESS PERIOD    3

 HEAD WILL BE SAVED ON UNIT   51 AT END OF TIME STEP   84, STRESS PERIOD    3
 
 SOLVING FOR HEAD 
                                                   Max.-Head-Change                         Max.-Flux-Residual
  Residual-Control   Outer-Iter.   Inner-Iter.     Column Row Layer    Maximum-Head-Change  Column Row Layer    Maximum-Flux-Residual          L2-NORM 
          0                 1           1            47   33     1      -0.2778717269E-03      47   29    1        -0.2140622981E+00      0.5983285079E+00
          0                 2           1            43   32     1      -0.2728405750E-04      33   48    1        -0.3150841269E-02      0.2760684651E-01
          0                 3           1            39   31     2      -0.2414620116E-04      41   32    1        -0.1279749922E-02      0.1338641679E-01
          0                 4           1            39   29     2      -0.1290017607E-04      39   29    2        -0.9114575622E-03      0.9581076939E-02
          0                 5           1            37   31     2      -0.1371500622E-04      37   31    2        -0.6692353806E-03      0.7783052553E-02
          0                 6           1            35   33     2      -0.8056568551E-05      44   32    2        -0.5787437622E-03      0.6618092464E-02

    ------------------------------------------------
       NWT REQUIRED            6 OUTER ITERATIONS 
       AND A TOTAL OF          6 INNER ITERATIONS.
    ------------------------------------------------

 OUTPUT CONTROL FOR STRESS PERIOD    3   TIME STEP   85
    SAVE HEAD FOR ALL LAYERS
 SOLVING FOR ZETA FOR LAYER     1 ZONE     2

     723 UPPER PART EQS.       734 LOWER PART EQS.    BAND WIDTH + 1 =   32
 STRESS PERIOD=  3 TIMESTEP= 85 LAYER=  1 ZONE=  2 ACTIVE CELLS= 1457 NUMBER OF EQUATIONS=    1457
 SOLVING FOR ZETA FOR LAYER     2 ZONE     2

     635 UPPER PART EQS.       638 LOWER PART EQS.    BAND WIDTH + 1 =   31
 STRESS PERIOD=  3 TIMESTEP= 85 LAYER=  2 ZONE=  2 ACTIVE CELLS= 1273 NUMBER OF EQUATIONS=    1273
 UBUDSV SAVING "      ZETASRF  1" ON UNIT 55 AT TIME STEP 85, STRESS PERIOD    3

 HEAD WILL BE SAVED ON UNIT   51 AT END OF TIME STEP   85, STRESS PERIOD    3
 
 SOLVING FOR HEAD 
                                                   Max.-Head-Change                         Max.-Flux-Residual
  Residual-Control   Outer-Iter.   Inner-Iter.     Column Row Layer    Maximum-Head-Change  Column Row Layer    Maximum-Flux-Residual          L2-NORM 
          0                 1           1            15   22     1      -0.3173313929E-03      15   22    1        -0.2551249739E+00      0.8507680953E+00
          0                 2           1            19   22     1      -0.1637202007E-04      18   39    1        -0.4641800863E-02      0.2683632283E-01
          0                 3           1            37   31     2      -0.1552915958E-04      37   31    2        -0.8835164996E-03      0.1031105357E-01
          0                 4           1            40   32     2      -0.8360170879E-05      41   31    2        -0.5703499016E-03      0.7406950036E-02

    ------------------------------------------------
       NWT REQUIRED            4 OUTER ITERATIONS 
       AND A TOTAL OF          4 INNER ITERATIONS.
    ------------------------------------------------

 OUTPUT CONTROL FOR STRESS PERIOD    3   TIME STEP   86
    SAVE HEAD FOR ALL LAYERS
 SOLVING FOR ZETA FOR LAYER     1 ZONE     2

     719 UPPER PART EQS.       734 LOWER PART EQS.    BAND WIDTH + 1 =   37
 STRESS PERIOD=  3 TIMESTEP= 86 LAYER=  1 ZONE=  2 ACTIVE CELLS= 1453 NUMBER OF EQUATIONS=    1453
 SOLVING FOR ZETA FOR LAYER     2 ZONE     2

     635 UPPER PART EQS.       638 LOWER PART EQS.    BAND WIDTH + 1 =   31
 STRESS PERIOD=  3 TIMESTEP= 86 LAYER=  2 ZONE=  2 ACTIVE CELLS= 1273 NUMBER OF EQUATIONS=    1273
 UBUDSV SAVING "      ZETASRF  1" ON UNIT 55 AT TIME STEP 86, STRESS PERIOD    3

 HEAD WILL BE SAVED ON UNIT   51 AT END OF TIME STEP   86, STRESS PERIOD    3
 
 SOLVING FOR HEAD 
                                                   Max.-Head-Change                         Max.-Flux-Residual
  Residual-Control   Outer-Iter.   Inner-Iter.     Column Row Layer    Maximum-Head-Change  Column Row Layer    Maximum-Flux-Residual          L2-NORM 
          0                 1           1            15   22     1       0.2493972381E-03      15   40    1         0.2459932452E+00      0.9751918480E+00
          0                 2           1            39   29     2      -0.1937160753E-04      12   41    1         0.4172686092E-02      0.2845959236E-01
          0                 3           1            37   31     2      -0.1977611274E-04      37   31    2        -0.1098895538E-02      0.1298381057E-01
          0                 4           1            39   29     2      -0.1194652783E-04      39   29    2        -0.8110492813E-03      0.9479838729E-02
          0                 5           1            37   31     2      -0.1364131460E-04      37   31    2        -0.6690785190E-03      0.8028150066E-02
          0                 6           1            34   32     2      -0.8761859099E-05      39   29    2        -0.5287846849E-03      0.7030636883E-02

    ------------------------------------------------
       NWT REQUIRED            6 OUTER ITERATIONS 
       AND A TOTAL OF          6 INNER ITERATIONS.
    ------------------------------------------------

 OUTPUT CONTROL FOR STRESS PERIOD    3   TIME STEP   87
    SAVE HEAD FOR ALL LAYERS
 SOLVING FOR ZETA FOR LAYER     1 ZONE     2

     715 UPPER PART EQS.       731 LOWER PART EQS.    BAND WIDTH + 1 =   37
 STRESS PERIOD=  3 TIMESTEP= 87 LAYER=  1 ZONE=  2 ACTIVE CELLS= 1446 NUMBER OF EQUATIONS=    1446
 SOLVING FOR ZETA FOR LAYER     2 ZONE     2

     635 UPPER PART EQS.       638 LOWER PART EQS.    BAND WIDTH + 1 =   31
 STRESS PERIOD=  3 TIMESTEP= 87 LAYER=  2 ZONE=  2 ACTIVE CELLS= 1273 NUMBER OF EQUATIONS=    1273
 UBUDSV SAVING "      ZETASRF  1" ON UNIT 55 AT TIME STEP 87, STRESS PERIOD    3

 HEAD WILL BE SAVED ON UNIT   51 AT END OF TIME STEP   87, STRESS PERIOD    3
 
 SOLVING FOR HEAD 
                                                   Max.-Head-Change                         Max.-Flux-Residual
  Residual-Control   Outer-Iter.   Inner-Iter.     Column Row Layer    Maximum-Head-Change  Column Row Layer    Maximum-Flux-Residual          L2-NORM 
          0                 1           1            22   47     1      -0.2839965168E-03      22   15    1        -0.2801307263E+00      0.9663235323E+00
          0                 2           1            39   29     2      -0.1737464350E-04      19   48    1        -0.4323919606E-02      0.2587768024E-01
          0                 3           1            37   31     2      -0.1903118484E-04      37   31    2        -0.1042986058E-02      0.9380093850E-02
          0                 4           1            39   29     2      -0.8530445457E-05      39   29    2        -0.6174639806E-03      0.6330570426E-02

    ------------------------------------------------
       NWT REQUIRED            4 OUTER ITERATIONS 
       AND A TOTAL OF          4 INNER ITERATIONS.
    ------------------------------------------------

 OUTPUT CONTROL FOR STRESS PERIOD    3   TIME STEP   88
    SAVE HEAD FOR ALL LAYERS
 SOLVING FOR ZETA FOR LAYER     1 ZONE     2

     727 UPPER PART EQS.       733 LOWER PART EQS.    BAND WIDTH + 1 =   27
 STRESS PERIOD=  3 TIMESTEP= 88 LAYER=  1 ZONE=  2 ACTIVE CELLS= 1460 NUMBER OF EQUATIONS=    1460
 SOLVING FOR ZETA FOR LAYER     2 ZONE     2

     635 UPPER PART EQS.       638 LOWER PART EQS.    BAND WIDTH + 1 =   31
 STRESS PERIOD=  3 TIMESTEP= 88 LAYER=  2 ZONE=  2 ACTIVE CELLS= 1273 NUMBER OF EQUATIONS=    1273
 UBUDSV SAVING "      ZETASRF  1" ON UNIT 55 AT TIME STEP 88, STRESS PERIOD    3

 HEAD WILL BE SAVED ON UNIT   51 AT END OF TIME STEP   88, STRESS PERIOD    3
 
 SOLVING FOR HEAD 
                                                   Max.-Head-Change                         Max.-Flux-Residual
  Residual-Control   Outer-Iter.   Inner-Iter.     Column Row Layer    Maximum-Head-Change  Column Row Layer    Maximum-Flux-Residual          L2-NORM 
          0                 1           1            22   47     1       0.3194737864E-03      22   15    1         0.2694844183E+00      0.7445855853E+00
          0                 2           1            39   29     2      -0.1936976210E-04      19   48    1         0.5317572980E-02      0.2935428909E-01
          0                 3           1            37   31     2      -0.1878226309E-04      37   31    2        -0.1106779419E-02      0.1200924447E-01
          0                 4           1            39   29     2      -0.1099443630E-04      39   29    2        -0.7798695738E-03      0.8191887421E-02
          0                 5           1            37   31     2      -0.1166924390E-04      37   31    2        -0.6114318371E-03      0.6560708735E-02
          0                 6           1            34   32     2      -0.6954098481E-05      39   29    2        -0.4604598110E-03      0.5533912410E-02

    ------------------------------------------------
       NWT REQUIRED            6 OUTER ITERATIONS 
       AND A TOTAL OF          6 INNER ITERATIONS.
    ------------------------------------------------

 OUTPUT CONTROL FOR STRESS PERIOD    3   TIME STEP   89
    SAVE HEAD FOR ALL LAYERS
 SOLVING FOR ZETA FOR LAYER     1 ZONE     2

     723 UPPER PART EQS.       732 LOWER PART EQS.    BAND WIDTH + 1 =   30
 STRESS PERIOD=  3 TIMESTEP= 89 LAYER=  1 ZONE=  2 ACTIVE CELLS= 1455 NUMBER OF EQUATIONS=    1455
 SOLVING FOR ZETA FOR LAYER     2 ZONE     2

     635 UPPER PART EQS.       638 LOWER PART EQS.    BAND WIDTH + 1 =   31
 STRESS PERIOD=  3 TIMESTEP= 89 LAYER=  2 ZONE=  2 ACTIVE CELLS= 1273 NUMBER OF EQUATIONS=    1273
 UBUDSV SAVING "      ZETASRF  1" ON UNIT 55 AT TIME STEP 89, STRESS PERIOD    3

 HEAD WILL BE SAVED ON UNIT   51 AT END OF TIME STEP   89, STRESS PERIOD    3
 
 SOLVING FOR HEAD 
                                                   Max.-Head-Change                         Max.-Flux-Residual
  Residual-Control   Outer-Iter.   Inner-Iter.     Column Row Layer    Maximum-Head-Change  Column Row Layer    Maximum-Flux-Residual          L2-NORM 
          0                 1           1            36   31     2      -0.2426742834E-03      37   47    1        -0.1534914875E+00      0.5963412676E+00
          0                 2           1            39   29     2      -0.1819623789E-04      21   48    1        -0.2913615528E-02      0.2359271474E-01
          0                 3           1            37   31     2      -0.1816413154E-04      37   31    2        -0.1023720735E-02      0.1039579830E-01
          0                 4           1            39   29     2      -0.9329832100E-05      39   29    2        -0.7119509924E-03      0.7307143134E-02

    ------------------------------------------------
       NWT REQUIRED            4 OUTER ITERATIONS 
       AND A TOTAL OF          4 INNER ITERATIONS.
    ------------------------------------------------

 OUTPUT CONTROL FOR STRESS PERIOD    3   TIME STEP   90
    SAVE HEAD FOR ALL LAYERS
 SOLVING FOR ZETA FOR LAYER     1 ZONE     2

     719 UPPER PART EQS.       736 LOWER PART EQS.    BAND WIDTH + 1 =   38
 STRESS PERIOD=  3 TIMESTEP= 90 LAYER=  1 ZONE=  2 ACTIVE CELLS= 1455 NUMBER OF EQUATIONS=    1455
 SOLVING FOR ZETA FOR LAYER     2 ZONE     2

     635 UPPER PART EQS.       638 LOWER PART EQS.    BAND WIDTH + 1 =   31
 STRESS PERIOD=  3 TIMESTEP= 90 LAYER=  2 ZONE=  2 ACTIVE CELLS= 1273 NUMBER OF EQUATIONS=    1273
 UBUDSV SAVING "      ZETASRF  1" ON UNIT 55 AT TIME STEP 90, STRESS PERIOD    3

 HEAD WILL BE SAVED ON UNIT   51 AT END OF TIME STEP   90, STRESS PERIOD    3
 
 SOLVING FOR HEAD 
                                                   Max.-Head-Change                         Max.-Flux-Residual
  Residual-Control   Outer-Iter.   Inner-Iter.     Column Row Layer    Maximum-Head-Change  Column Row Layer    Maximum-Flux-Residual          L2-NORM 
          0                 1           1            36   31     2      -0.2481396433E-03      16   43    1        -0.1736554001E+00      0.6872012119E+00
          0                 2           1            39   29     2      -0.1883325069E-04      19   42    1        -0.3676893762E-02      0.2476476719E-01
          0                 3           1            37   31     2      -0.2085783124E-04      37   31    2        -0.1098844076E-02      0.1063646049E-01
          0                 4           1            39   29     2      -0.9578679813E-05      39   29    2        -0.7045262828E-03      0.7567746768E-02

    ------------------------------------------------
       NWT REQUIRED            4 OUTER ITERATIONS 
       AND A TOTAL OF          4 INNER ITERATIONS.
    ------------------------------------------------

 OUTPUT CONTROL FOR STRESS PERIOD    3   TIME STEP   91
    SAVE HEAD FOR ALL LAYERS
 SOLVING FOR ZETA FOR LAYER     1 ZONE     2

     725 UPPER PART EQS.       729 LOWER PART EQS.    BAND WIDTH + 1 =   27
 STRESS PERIOD=  3 TIMESTEP= 91 LAYER=  1 ZONE=  2 ACTIVE CELLS= 1454 NUMBER OF EQUATIONS=    1454
 SOLVING FOR ZETA FOR LAYER     2 ZONE     2

     635 UPPER PART EQS.       638 LOWER PART EQS.    BAND WIDTH + 1 =   31
 STRESS PERIOD=  3 TIMESTEP= 91 LAYER=  2 ZONE=  2 ACTIVE CELLS= 1273 NUMBER OF EQUATIONS=    1273
 UBUDSV SAVING "      ZETASRF  1" ON UNIT 55 AT TIME STEP 91, STRESS PERIOD    3

 HEAD WILL BE SAVED ON UNIT   51 AT END OF TIME STEP   91, STRESS PERIOD    3
 
 SOLVING FOR HEAD 
                                                   Max.-Head-Change                         Max.-Flux-Residual
  Residual-Control   Outer-Iter.   Inner-Iter.     Column Row Layer    Maximum-Head-Change  Column Row Layer    Maximum-Flux-Residual          L2-NORM 
          0                 1           1            36   31     2      -0.2525179670E-03      23   14    1         0.1890324787E+00      0.6562967137E+00
          0                 2           1            39   29     2      -0.1965996679E-04      20   15    1         0.3626134593E-02      0.2494274641E-01
          0                 3           1            37   31     2      -0.2133912489E-04      37   31    2        -0.1137243906E-02      0.1119652020E-01
          0                 4           1            39   29     2      -0.1031247843E-04      39   29    2        -0.7704748735E-03      0.7950429567E-02
          0                 5           1            37   31     2      -0.1245955346E-04      37   31    2        -0.6073136376E-03      0.6524075179E-02
          0                 6           1            34   32     2      -0.7011326180E-05      39   29    2        -0.4648465921E-03      0.5610485426E-02

    ------------------------------------------------
       NWT REQUIRED            6 OUTER ITERATIONS 
       AND A TOTAL OF          6 INNER ITERATIONS.
    ------------------------------------------------

 OUTPUT CONTROL FOR STRESS PERIOD    3   TIME STEP   92
    SAVE HEAD FOR ALL LAYERS
 SOLVING FOR ZETA FOR LAYER     1 ZONE     2

     719 UPPER PART EQS.       735 LOWER PART EQS.    BAND WIDTH + 1 =   37
 STRESS PERIOD=  3 TIMESTEP= 92 LAYER=  1 ZONE=  2 ACTIVE CELLS= 1454 NUMBER OF EQUATIONS=    1454
 SOLVING FOR ZETA FOR LAYER     2 ZONE     2

     635 UPPER PART EQS.       638 LOWER PART EQS.    BAND WIDTH + 1 =   31
 STRESS PERIOD=  3 TIMESTEP= 92 LAYER=  2 ZONE=  2 ACTIVE CELLS= 1273 NUMBER OF EQUATIONS=    1273
 UBUDSV SAVING "      ZETASRF  1" ON UNIT 55 AT TIME STEP 92, STRESS PERIOD    3

 HEAD WILL BE SAVED ON UNIT   51 AT END OF TIME STEP   92, STRESS PERIOD    3
 
 SOLVING FOR HEAD 
                                                   Max.-Head-Change                         Max.-Flux-Residual
  Residual-Control   Outer-Iter.   Inner-Iter.     Column Row Layer    Maximum-Head-Change  Column Row Layer    Maximum-Flux-Residual          L2-NORM 
          0                 1           1            47   32     1      -0.3264338668E-03      47   34    1        -0.2383652266E+00      0.8566402094E+00
          0                 2           1            44   31     1      -0.4196860392E-04      44   33    1        -0.6718029205E-02      0.3447715405E-01
          0                 3           1            41   31     2      -0.3054148150E-04      46   31    1        -0.1903884736E-02      0.1528507011E-01
          0                 4           1            38   30     2      -0.1472024025E-04      44   33    1        -0.1291654028E-02      0.1067634890E-01
          0                 5           1            40   32     2      -0.1595478301E-04      46   31    1        -0.9099242698E-03      0.8693186548E-02
          0                 6           1            43   32     1      -0.8800653913E-05      44   33    1        -0.8013698266E-03      0.7400357521E-02

    ------------------------------------------------
       NWT REQUIRED            6 OUTER ITERATIONS 
       AND A TOTAL OF          6 INNER ITERATIONS.
    ------------------------------------------------

 OUTPUT CONTROL FOR STRESS PERIOD    3   TIME STEP   93
    SAVE HEAD FOR ALL LAYERS
 SOLVING FOR ZETA FOR LAYER     1 ZONE     2

     723 UPPER PART EQS.       734 LOWER PART EQS.    BAND WIDTH + 1 =   32
 STRESS PERIOD=  3 TIMESTEP= 93 LAYER=  1 ZONE=  2 ACTIVE CELLS= 1457 NUMBER OF EQUATIONS=    1457
 SOLVING FOR ZETA FOR LAYER     2 ZONE     2

     635 UPPER PART EQS.       638 LOWER PART EQS.    BAND WIDTH + 1 =   31
 STRESS PERIOD=  3 TIMESTEP= 93 LAYER=  2 ZONE=  2 ACTIVE CELLS= 1273 NUMBER OF EQUATIONS=    1273
 UBUDSV SAVING "      ZETASRF  1" ON UNIT 55 AT TIME STEP 93, STRESS PERIOD    3

 HEAD WILL BE SAVED ON UNIT   51 AT END OF TIME STEP   93, STRESS PERIOD    3
 
 SOLVING FOR HEAD 
                                                   Max.-Head-Change                         Max.-Flux-Residual
  Residual-Control   Outer-Iter.   Inner-Iter.     Column Row Layer    Maximum-Head-Change  Column Row Layer    Maximum-Flux-Residual          L2-NORM 
          0                 1           1            15   22     1      -0.3158022899E-03      15   40    1        -0.2604520522E+00      0.1047445325E+01
          0                 2           1            34   32     2      -0.1656183290E-04      44   35    1         0.4812384982E-02      0.3250456252E-01
          0                 3           1            36   32     2      -0.1353004533E-04      37   31    2        -0.8665365009E-03      0.1064743628E-01
          0                 4           1            33   31     2      -0.8003045181E-05      46   31    1        -0.5037260031E-03      0.7312892944E-02

    ------------------------------------------------
       NWT REQUIRED            4 OUTER ITERATIONS 
       AND A TOTAL OF          4 INNER ITERATIONS.
    ------------------------------------------------

 OUTPUT CONTROL FOR STRESS PERIOD    3   TIME STEP   94
    SAVE HEAD FOR ALL LAYERS
 SOLVING FOR ZETA FOR LAYER     1 ZONE     2

     717 UPPER PART EQS.       732 LOWER PART EQS.    BAND WIDTH + 1 =   36
 STRESS PERIOD=  3 TIMESTEP= 94 LAYER=  1 ZONE=  2 ACTIVE CELLS= 1449 NUMBER OF EQUATIONS=    1449
 SOLVING FOR ZETA FOR LAYER     2 ZONE     2

     635 UPPER PART EQS.       638 LOWER PART EQS.    BAND WIDTH + 1 =   31
 STRESS PERIOD=  3 TIMESTEP= 94 LAYER=  2 ZONE=  2 ACTIVE CELLS= 1273 NUMBER OF EQUATIONS=    1273
 UBUDSV SAVING "      ZETASRF  1" ON UNIT 55 AT TIME STEP 94, STRESS PERIOD    3

 HEAD WILL BE SAVED ON UNIT   51 AT END OF TIME STEP   94, STRESS PERIOD    3
 
 SOLVING FOR HEAD 
                                                   Max.-Head-Change                         Max.-Flux-Residual
  Residual-Control   Outer-Iter.   Inner-Iter.     Column Row Layer    Maximum-Head-Change  Column Row Layer    Maximum-Flux-Residual          L2-NORM 
          0                 1           1            47   31     1      -0.2854125555E-03      15   40    1         0.2500758219E+00      0.9992304696E+00
          0                 2           1            43   32     1      -0.2024533543E-04      51   30    1         0.4330747063E-02      0.2825125225E-01
          0                 3           1            39   31     2      -0.2377241917E-04      37   31    2        -0.1182426212E-02      0.1214092533E-01
          0                 4           1            34   32     2      -0.1102357171E-04      39   29    2        -0.7768595864E-03      0.8588161668E-02
          0                 5           1            37   31     2      -0.1325689034E-04      37   31    2        -0.6222749639E-03      0.7135270797E-02
          0                 6           1            34   32     2      -0.7508517816E-05      39   29    2        -0.4823467477E-03      0.6156950475E-02

    ------------------------------------------------
       NWT REQUIRED            6 OUTER ITERATIONS 
       AND A TOTAL OF          6 INNER ITERATIONS.
    ------------------------------------------------

 OUTPUT CONTROL FOR STRESS PERIOD    3   TIME STEP   95
    SAVE HEAD FOR ALL LAYERS
 SOLVING FOR ZETA FOR LAYER     1 ZONE     2

     722 UPPER PART EQS.       729 LOWER PART EQS.    BAND WIDTH + 1 =   29
 STRESS PERIOD=  3 TIMESTEP= 95 LAYER=  1 ZONE=  2 ACTIVE CELLS= 1451 NUMBER OF EQUATIONS=    1451
 SOLVING FOR ZETA FOR LAYER     2 ZONE     2

     635 UPPER PART EQS.       638 LOWER PART EQS.    BAND WIDTH + 1 =   31
 STRESS PERIOD=  3 TIMESTEP= 95 LAYER=  2 ZONE=  2 ACTIVE CELLS= 1273 NUMBER OF EQUATIONS=    1273
 UBUDSV SAVING "      ZETASRF  1" ON UNIT 55 AT TIME STEP 95, STRESS PERIOD    3

 HEAD WILL BE SAVED ON UNIT   51 AT END OF TIME STEP   95, STRESS PERIOD    3
 
 SOLVING FOR HEAD 
                                                   Max.-Head-Change                         Max.-Flux-Residual
  Residual-Control   Outer-Iter.   Inner-Iter.     Column Row Layer    Maximum-Head-Change  Column Row Layer    Maximum-Flux-Residual          L2-NORM 
          0                 1           1            36   31     2      -0.2664671083E-03      47   31    1         0.2181656417E+00      0.8339218650E+00
          0                 2           1            34   32     2      -0.1661406851E-04      45   32    1        -0.3872163528E-02      0.2749580527E-01
          0                 3           1            37   31     2      -0.1531802262E-04      37   31    2        -0.9584473686E-03      0.9191811267E-02
          0                 4           1            39   29     2      -0.8301866381E-05      39   29    2        -0.5731122632E-03      0.6114147525E-02

    ------------------------------------------------
       NWT REQUIRED            4 OUTER ITERATIONS 
       AND A TOTAL OF          4 INNER ITERATIONS.
    ------------------------------------------------

 OUTPUT CONTROL FOR STRESS PERIOD    3   TIME STEP   96
    SAVE HEAD FOR ALL LAYERS
 SOLVING FOR ZETA FOR LAYER     1 ZONE     2

     723 UPPER PART EQS.       735 LOWER PART EQS.    BAND WIDTH + 1 =   33
 STRESS PERIOD=  3 TIMESTEP= 96 LAYER=  1 ZONE=  2 ACTIVE CELLS= 1458 NUMBER OF EQUATIONS=    1458
 SOLVING FOR ZETA FOR LAYER     2 ZONE     2

     635 UPPER PART EQS.       638 LOWER PART EQS.    BAND WIDTH + 1 =   31
 STRESS PERIOD=  3 TIMESTEP= 96 LAYER=  2 ZONE=  2 ACTIVE CELLS= 1273 NUMBER OF EQUATIONS=    1273
 UBUDSV SAVING "      ZETASRF  1" ON UNIT 55 AT TIME STEP 96, STRESS PERIOD    3

 HEAD WILL BE SAVED ON UNIT   51 AT END OF TIME STEP   96, STRESS PERIOD    3
 
 SOLVING FOR HEAD 
                                                   Max.-Head-Change                         Max.-Flux-Residual
  Residual-Control   Outer-Iter.   Inner-Iter.     Column Row Layer    Maximum-Head-Change  Column Row Layer    Maximum-Flux-Residual          L2-NORM 
          0                 1           1            36   31     2      -0.2706058095E-03      19   46    1        -0.1854029636E+00      0.7090138837E+00
          0                 2           1            39   29     2      -0.1864920134E-04      22   15    1        -0.4508719888E-02      0.2632161322E-01
          0                 3           1            37   31     2      -0.1960625121E-04      37   31    2        -0.1071058525E-02      0.1056378939E-01
          0                 4           1            38   33     1      -0.9375811577E-05      39   29    2        -0.6876446652E-03      0.7227415253E-02

    ------------------------------------------------
       NWT REQUIRED            4 OUTER ITERATIONS 
       AND A TOTAL OF          4 INNER ITERATIONS.
    ------------------------------------------------

 OUTPUT CONTROL FOR STRESS PERIOD    3   TIME STEP   97
    SAVE HEAD FOR ALL LAYERS
 SOLVING FOR ZETA FOR LAYER     1 ZONE     2

     725 UPPER PART EQS.       732 LOWER PART EQS.    BAND WIDTH + 1 =   28
 STRESS PERIOD=  3 TIMESTEP= 97 LAYER=  1 ZONE=  2 ACTIVE CELLS= 1457 NUMBER OF EQUATIONS=    1457
 SOLVING FOR ZETA FOR LAYER     2 ZONE     2

     635 UPPER PART EQS.       637 LOWER PART EQS.    BAND WIDTH + 1 =   31
 STRESS PERIOD=  3 TIMESTEP= 97 LAYER=  2 ZONE=  2 ACTIVE CELLS= 1272 NUMBER OF EQUATIONS=    1272
 UBUDSV SAVING "      ZETASRF  1" ON UNIT 55 AT TIME STEP 97, STRESS PERIOD    3

 HEAD WILL BE SAVED ON UNIT   51 AT END OF TIME STEP   97, STRESS PERIOD    3
 
 SOLVING FOR HEAD 
                                                   Max.-Head-Change                         Max.-Flux-Residual
  Residual-Control   Outer-Iter.   Inner-Iter.     Column Row Layer    Maximum-Head-Change  Column Row Layer    Maximum-Flux-Residual          L2-NORM 
          0                 1           1            36   31     2      -0.2754203687E-03      19   16    1         0.1747012176E+00      0.6763164251E+00
          0                 2           1            39   29     2      -0.1946253903E-04      22   15    1         0.4022899404E-02      0.2472550882E-01
          0                 3           1            37   31     2      -0.2196579498E-04      37   31    2        -0.1136488065E-02      0.1087692906E-01
          0                 4           1            34   32     2      -0.9712158475E-05      39   29    2        -0.7398997416E-03      0.7667180253E-02

    ------------------------------------------------
       NWT REQUIRED            4 OUTER ITERATIONS 
       AND A TOTAL OF          4 INNER ITERATIONS.
    ------------------------------------------------

 OUTPUT CONTROL FOR STRESS PERIOD    3   TIME STEP   98
    SAVE HEAD FOR ALL LAYERS
 SOLVING FOR ZETA FOR LAYER     1 ZONE     2

     721 UPPER PART EQS.       738 LOWER PART EQS.    BAND WIDTH + 1 =   38
 STRESS PERIOD=  3 TIMESTEP= 98 LAYER=  1 ZONE=  2 ACTIVE CELLS= 1459 NUMBER OF EQUATIONS=    1459
 SOLVING FOR ZETA FOR LAYER     2 ZONE     2

     635 UPPER PART EQS.       636 LOWER PART EQS.    BAND WIDTH + 1 =   31
 STRESS PERIOD=  3 TIMESTEP= 98 LAYER=  2 ZONE=  2 ACTIVE CELLS= 1271 NUMBER OF EQUATIONS=    1271
 UBUDSV SAVING "      ZETASRF  1" ON UNIT 55 AT TIME STEP 98, STRESS PERIOD    3

 HEAD WILL BE SAVED ON UNIT   51 AT END OF TIME STEP   98, STRESS PERIOD    3
 
 SOLVING FOR HEAD 
                                                   Max.-Head-Change                         Max.-Flux-Residual
  Residual-Control   Outer-Iter.   Inner-Iter.     Column Row Layer    Maximum-Head-Change  Column Row Layer    Maximum-Flux-Residual          L2-NORM 
          0                 1           1            36   31     2      -0.2796723493E-03      15   39    1        -0.1659418795E+00      0.6254471180E+00
          0                 2           1            39   29     2      -0.2014304211E-04      11   40    1         0.3068650466E-02      0.2245928930E-01
          0                 3           1            37   31     2      -0.2258077494E-04      37   31    2        -0.1166402967E-02      0.1074320436E-01
          0                 4           1            34   32     2      -0.9858083016E-05      39   29    2        -0.7811967876E-03      0.7770508997E-02

    ------------------------------------------------
       NWT REQUIRED            4 OUTER ITERATIONS 
       AND A TOTAL OF          4 INNER ITERATIONS.
    ------------------------------------------------

 OUTPUT CONTROL FOR STRESS PERIOD    3   TIME STEP   99
    SAVE HEAD FOR ALL LAYERS
 SOLVING FOR ZETA FOR LAYER     1 ZONE     2

     723 UPPER PART EQS.       733 LOWER PART EQS.    BAND WIDTH + 1 =   31
 STRESS PERIOD=  3 TIMESTEP= 99 LAYER=  1 ZONE=  2 ACTIVE CELLS= 1456 NUMBER OF EQUATIONS=    1456
 SOLVING FOR ZETA FOR LAYER     2 ZONE     2

     635 UPPER PART EQS.       636 LOWER PART EQS.    BAND WIDTH + 1 =   31
 STRESS PERIOD=  3 TIMESTEP= 99 LAYER=  2 ZONE=  2 ACTIVE CELLS= 1271 NUMBER OF EQUATIONS=    1271
 UBUDSV SAVING "      ZETASRF  1" ON UNIT 55 AT TIME STEP 99, STRESS PERIOD    3

 HEAD WILL BE SAVED ON UNIT   51 AT END OF TIME STEP   99, STRESS PERIOD    3
 
 SOLVING FOR HEAD 
                                                   Max.-Head-Change                         Max.-Flux-Residual
  Residual-Control   Outer-Iter.   Inner-Iter.     Column Row Layer    Maximum-Head-Change  Column Row Layer    Maximum-Flux-Residual          L2-NORM 
          0                 1           1            36   31     2      -0.2834121910E-03      16   19    1        -0.1788289365E+00      0.5669805733E+00
          0                 2           1            39   29     2      -0.2029873127E-04      19   42    1        -0.3024481761E-02      0.2267479492E-01
          0                 3           1            37   31     2      -0.2332821590E-04      37   31    2        -0.1172579322E-02      0.1078400314E-01
          0                 4           1            39   29     2      -0.9675096423E-05      39   29    2        -0.7942039055E-03      0.7689885464E-02

    ------------------------------------------------
       NWT REQUIRED            4 OUTER ITERATIONS 
       AND A TOTAL OF          4 INNER ITERATIONS.
    ------------------------------------------------

 OUTPUT CONTROL FOR STRESS PERIOD    3   TIME STEP  100
    SAVE HEAD FOR ALL LAYERS
 SOLVING FOR ZETA FOR LAYER     1 ZONE     2

     729 UPPER PART EQS.       733 LOWER PART EQS.    BAND WIDTH + 1 =   27
 STRESS PERIOD=  3 TIMESTEP=100 LAYER=  1 ZONE=  2 ACTIVE CELLS= 1462 NUMBER OF EQUATIONS=    1462
 SOLVING FOR ZETA FOR LAYER     2 ZONE     2

     635 UPPER PART EQS.       636 LOWER PART EQS.    BAND WIDTH + 1 =   31
 STRESS PERIOD=  3 TIMESTEP=100 LAYER=  2 ZONE=  2 ACTIVE CELLS= 1271 NUMBER OF EQUATIONS=    1271
 UBUDSV SAVING "      ZETASRF  1" ON UNIT 55 AT TIME STEP100, STRESS PERIOD    3

 HEAD WILL BE SAVED ON UNIT   51 AT END OF TIME STEP  100, STRESS PERIOD    3
 
 SOLVING FOR HEAD 
                                                   Max.-Head-Change                         Max.-Flux-Residual
  Residual-Control   Outer-Iter.   Inner-Iter.     Column Row Layer    Maximum-Head-Change  Column Row Layer    Maximum-Flux-Residual          L2-NORM 
          0                 1           1            36   31     2      -0.2870702338E-03      23   47    1        -0.1915083284E+00      0.6781235051E+00
          0                 2           1            39   29     2      -0.2109036365E-04      20   15    1         0.3813844902E-02      0.2761096030E-01
          0                 3           1            37   31     2      -0.2180418976E-04      37   31    2        -0.1192606633E-02      0.1276153725E-01
          0                 4           1            39   29     2      -0.1173777138E-04      39   29    2        -0.8513623636E-03      0.9310263366E-02
          0                 5           1            37   31     2      -0.1361190047E-04      37   31    2        -0.6787306436E-03      0.7827862714E-02
          0                 6           1            34   32     2      -0.8656084522E-05      39   29    2        -0.5354900748E-03      0.6864407244E-02

    ------------------------------------------------
       NWT REQUIRED            6 OUTER ITERATIONS 
       AND A TOTAL OF          6 INNER ITERATIONS.
    ------------------------------------------------

 OUTPUT CONTROL FOR STRESS PERIOD    3   TIME STEP  101
    SAVE HEAD FOR ALL LAYERS
 SOLVING FOR ZETA FOR LAYER     1 ZONE     2

     723 UPPER PART EQS.       732 LOWER PART EQS.    BAND WIDTH + 1 =   30
 STRESS PERIOD=  3 TIMESTEP=101 LAYER=  1 ZONE=  2 ACTIVE CELLS= 1455 NUMBER OF EQUATIONS=    1455
 SOLVING FOR ZETA FOR LAYER     2 ZONE     2

     635 UPPER PART EQS.       636 LOWER PART EQS.    BAND WIDTH + 1 =   31
 STRESS PERIOD=  3 TIMESTEP=101 LAYER=  2 ZONE=  2 ACTIVE CELLS= 1271 NUMBER OF EQUATIONS=    1271
 UBUDSV SAVING "      ZETASRF  1" ON UNIT 55 AT TIME STEP101, STRESS PERIOD    3

 HEAD WILL BE SAVED ON UNIT   51 AT END OF TIME STEP  101, STRESS PERIOD    3
 
 SOLVING FOR HEAD 
                                                   Max.-Head-Change                         Max.-Flux-Residual
  Residual-Control   Outer-Iter.   Inner-Iter.     Column Row Layer    Maximum-Head-Change  Column Row Layer    Maximum-Flux-Residual          L2-NORM 
          0                 1           1            15   22     1      -0.3246725622E-03      22   15    1        -0.2887219358E+00      0.1013830215E+01
          0                 2           1            39   29     2      -0.1886341065E-04      19   48    1        -0.4658569272E-02      0.2937373678E-01
          0                 3           1            37   31     2      -0.1898463775E-04      37   31    2        -0.1111983689E-02      0.1187765350E-01
          0                 4           1            34   32     2      -0.9819352086E-05      39   29    2        -0.6956891076E-03      0.8487738612E-02

    ------------------------------------------------
       NWT REQUIRED            4 OUTER ITERATIONS 
       AND A TOTAL OF          4 INNER ITERATIONS.
    ------------------------------------------------

 OUTPUT CONTROL FOR STRESS PERIOD    3   TIME STEP  102
    SAVE HEAD FOR ALL LAYERS
 SOLVING FOR ZETA FOR LAYER     1 ZONE     2

     719 UPPER PART EQS.       732 LOWER PART EQS.    BAND WIDTH + 1 =   35
 STRESS PERIOD=  3 TIMESTEP=102 LAYER=  1 ZONE=  2 ACTIVE CELLS= 1451 NUMBER OF EQUATIONS=    1451
 SOLVING FOR ZETA FOR LAYER     2 ZONE     2

     635 UPPER PART EQS.       636 LOWER PART EQS.    BAND WIDTH + 1 =   31
 STRESS PERIOD=  3 TIMESTEP=102 LAYER=  2 ZONE=  2 ACTIVE CELLS= 1271 NUMBER OF EQUATIONS=    1271
 UBUDSV SAVING "      ZETASRF  1" ON UNIT 55 AT TIME STEP102, STRESS PERIOD    3

 HEAD WILL BE SAVED ON UNIT   51 AT END OF TIME STEP  102, STRESS PERIOD    3
 
 SOLVING FOR HEAD 
                                                   Max.-Head-Change                         Max.-Flux-Residual
  Residual-Control   Outer-Iter.   Inner-Iter.     Column Row Layer    Maximum-Head-Change  Column Row Layer    Maximum-Flux-Residual          L2-NORM 
          0                 1           1            22   15     1       0.3403900004E-03      22   47    1         0.2778580211E+00      0.9666880568E+00
          0                 2           1            39   29     2      -0.2073531911E-04      19   48    1         0.5600754818E-02      0.3279923368E-01
          0                 3           1            37   31     2      -0.2080657704E-04      37   31    2        -0.1208330183E-02      0.1286598778E-01
          0                 4           1            39   29     2      -0.1178051202E-04      39   29    2        -0.8313394553E-03      0.8841367693E-02
          0                 5           1            37   31     2      -0.1257970696E-04      37   31    2        -0.6618030755E-03      0.7101209007E-02
          0                 6           1            34   32     2      -0.7659890762E-05      39   29    2        -0.5027807483E-03      0.5991597836E-02

    ------------------------------------------------
       NWT REQUIRED            6 OUTER ITERATIONS 
       AND A TOTAL OF          6 INNER ITERATIONS.
    ------------------------------------------------

 OUTPUT CONTROL FOR STRESS PERIOD    3   TIME STEP  103
    SAVE HEAD FOR ALL LAYERS
 SOLVING FOR ZETA FOR LAYER     1 ZONE     2

     727 UPPER PART EQS.       733 LOWER PART EQS.    BAND WIDTH + 1 =   27
 STRESS PERIOD=  3 TIMESTEP=103 LAYER=  1 ZONE=  2 ACTIVE CELLS= 1460 NUMBER OF EQUATIONS=    1460
 SOLVING FOR ZETA FOR LAYER     2 ZONE     2

     635 UPPER PART EQS.       636 LOWER PART EQS.    BAND WIDTH + 1 =   31
 STRESS PERIOD=  3 TIMESTEP=103 LAYER=  2 ZONE=  2 ACTIVE CELLS= 1271 NUMBER OF EQUATIONS=    1271
 UBUDSV SAVING "      ZETASRF  1" ON UNIT 55 AT TIME STEP103, STRESS PERIOD    3

 HEAD WILL BE SAVED ON UNIT   51 AT END OF TIME STEP  103, STRESS PERIOD    3
 
 SOLVING FOR HEAD 
                                                   Max.-Head-Change                         Max.-Flux-Residual
  Residual-Control   Outer-Iter.   Inner-Iter.     Column Row Layer    Maximum-Head-Change  Column Row Layer    Maximum-Flux-Residual          L2-NORM 
          0                 1           1            36   31     2      -0.2968658765E-03      38   47    1        -0.2316583911E+00      0.7207909205E+00
          0                 2           1            39   29     2      -0.1924442867E-04      35   16    1        -0.3972475553E-02      0.2332382954E-01
          0                 3           1            37   31     2      -0.2011396985E-04      37   31    2        -0.1113652161E-02      0.1031224690E-01
          0                 4           1            39   29     2      -0.9461334461E-05      39   29    2        -0.7417416326E-03      0.7339512559E-02

    ------------------------------------------------
       NWT REQUIRED            4 OUTER ITERATIONS 
       AND A TOTAL OF          4 INNER ITERATIONS.
    ------------------------------------------------

 OUTPUT CONTROL FOR STRESS PERIOD    3   TIME STEP  104
    SAVE HEAD FOR ALL LAYERS
 SOLVING FOR ZETA FOR LAYER     1 ZONE     2

     725 UPPER PART EQS.       733 LOWER PART EQS.    BAND WIDTH + 1 =   30
 STRESS PERIOD=  3 TIMESTEP=104 LAYER=  1 ZONE=  2 ACTIVE CELLS= 1458 NUMBER OF EQUATIONS=    1458
 SOLVING FOR ZETA FOR LAYER     2 ZONE     2

     635 UPPER PART EQS.       636 LOWER PART EQS.    BAND WIDTH + 1 =   31
 STRESS PERIOD=  3 TIMESTEP=104 LAYER=  2 ZONE=  2 ACTIVE CELLS= 1271 NUMBER OF EQUATIONS=    1271
 UBUDSV SAVING "      ZETASRF  1" ON UNIT 55 AT TIME STEP104, STRESS PERIOD    3

 HEAD WILL BE SAVED ON UNIT   51 AT END OF TIME STEP  104, STRESS PERIOD    3
 
 SOLVING FOR HEAD 
                                                   Max.-Head-Change                         Max.-Flux-Residual
  Residual-Control   Outer-Iter.   Inner-Iter.     Column Row Layer    Maximum-Head-Change  Column Row Layer    Maximum-Flux-Residual          L2-NORM 
          0                 1           1            36   31     2      -0.3019738539E-03      38   47    1         0.2219134228E+00      0.6453568376E+00
          0                 2           1            39   29     2      -0.2001767474E-04      35   16    1         0.3555029755E-02      0.2258610912E-01
          0                 3           1            37   31     2      -0.2419443054E-04      37   31    2        -0.1190079912E-02      0.1058152835E-01
          0                 4           1            34   32     2      -0.9068288921E-05      39   29    2        -0.7648208046E-03      0.7458200193E-02

    ------------------------------------------------
       NWT REQUIRED            4 OUTER ITERATIONS 
       AND A TOTAL OF          4 INNER ITERATIONS.
    ------------------------------------------------

 OUTPUT CONTROL FOR STRESS PERIOD    3   TIME STEP  105
    SAVE HEAD FOR ALL LAYERS
 SOLVING FOR ZETA FOR LAYER     1 ZONE     2

     729 UPPER PART EQS.       736 LOWER PART EQS.    BAND WIDTH + 1 =   29
 STRESS PERIOD=  3 TIMESTEP=105 LAYER=  1 ZONE=  2 ACTIVE CELLS= 1465 NUMBER OF EQUATIONS=    1465
 SOLVING FOR ZETA FOR LAYER     2 ZONE     2

     635 UPPER PART EQS.       636 LOWER PART EQS.    BAND WIDTH + 1 =   31
 STRESS PERIOD=  3 TIMESTEP=105 LAYER=  2 ZONE=  2 ACTIVE CELLS= 1271 NUMBER OF EQUATIONS=    1271
 UBUDSV SAVING "      ZETASRF  1" ON UNIT 55 AT TIME STEP105, STRESS PERIOD    3

 HEAD WILL BE SAVED ON UNIT   51 AT END OF TIME STEP  105, STRESS PERIOD    3
 
 SOLVING FOR HEAD 
                                                   Max.-Head-Change                         Max.-Flux-Residual
  Residual-Control   Outer-Iter.   Inner-Iter.     Column Row Layer    Maximum-Head-Change  Column Row Layer    Maximum-Flux-Residual          L2-NORM 
          0                 1           1            36   31     2      -0.3055959047E-03      23   14    1         0.1939259894E+00      0.7034899784E+00
          0                 2           1            39   29     2      -0.2044503316E-04      20   15    1         0.4368927027E-02      0.2658856974E-01
          0                 3           1            37   31     2      -0.2073182565E-04      37   31    2        -0.1188599342E-02      0.1147366262E-01
          0                 4           1            39   29     2      -0.1043424787E-04      39   29    2        -0.7855285691E-03      0.8123874569E-02
          0                 5           1            37   31     2      -0.1220536091E-04      37   31    2        -0.6149366607E-03      0.6770178236E-02
          0                 6           1            34   32     2      -0.7459240444E-05      39   29    2        -0.4725514460E-03      0.5902202247E-02

    ------------------------------------------------
       NWT REQUIRED            6 OUTER ITERATIONS 
       AND A TOTAL OF          6 INNER ITERATIONS.
    ------------------------------------------------

 OUTPUT CONTROL FOR STRESS PERIOD    3   TIME STEP  106
    SAVE HEAD FOR ALL LAYERS
 SOLVING FOR ZETA FOR LAYER     1 ZONE     2

     725 UPPER PART EQS.       736 LOWER PART EQS.    BAND WIDTH + 1 =   32
 STRESS PERIOD=  3 TIMESTEP=106 LAYER=  1 ZONE=  2 ACTIVE CELLS= 1461 NUMBER OF EQUATIONS=    1461
 SOLVING FOR ZETA FOR LAYER     2 ZONE     2

     635 UPPER PART EQS.       636 LOWER PART EQS.    BAND WIDTH + 1 =   31
 STRESS PERIOD=  3 TIMESTEP=106 LAYER=  2 ZONE=  2 ACTIVE CELLS= 1271 NUMBER OF EQUATIONS=    1271
 UBUDSV SAVING "      ZETASRF  1" ON UNIT 55 AT TIME STEP106, STRESS PERIOD    3

 HEAD WILL BE SAVED ON UNIT   51 AT END OF TIME STEP  106, STRESS PERIOD    3
 
 SOLVING FOR HEAD 
                                                   Max.-Head-Change                         Max.-Flux-Residual
  Residual-Control   Outer-Iter.   Inner-Iter.     Column Row Layer    Maximum-Head-Change  Column Row Layer    Maximum-Flux-Residual          L2-NORM 
          0                 1           1            36   31     2      -0.3073968455E-03      19   46    1        -0.1915926082E+00      0.8201135298E+00
          0                 2           1            39   29     2      -0.1859314531E-04      22   15    1        -0.4498530496E-02      0.2855960160E-01
          0                 3           1            37   31     2      -0.1975777160E-04      37   31    2        -0.1097421835E-02      0.1102384947E-01
          0                 4           1            34   32     2      -0.9762295741E-05      34   34    2        -0.7179748916E-03      0.7856557593E-02

    ------------------------------------------------
       NWT REQUIRED            4 OUTER ITERATIONS 
       AND A TOTAL OF          4 INNER ITERATIONS.
    ------------------------------------------------

 OUTPUT CONTROL FOR STRESS PERIOD    3   TIME STEP  107
    SAVE HEAD FOR ALL LAYERS
 SOLVING FOR ZETA FOR LAYER     1 ZONE     2

     725 UPPER PART EQS.       727 LOWER PART EQS.    BAND WIDTH + 1 =   29
 STRESS PERIOD=  3 TIMESTEP=107 LAYER=  1 ZONE=  2 ACTIVE CELLS= 1452 NUMBER OF EQUATIONS=    1452
 SOLVING FOR ZETA FOR LAYER     2 ZONE     2

     635 UPPER PART EQS.       636 LOWER PART EQS.    BAND WIDTH + 1 =   31
 STRESS PERIOD=  3 TIMESTEP=107 LAYER=  2 ZONE=  2 ACTIVE CELLS= 1271 NUMBER OF EQUATIONS=    1271
 UBUDSV SAVING "      ZETASRF  1" ON UNIT 55 AT TIME STEP107, STRESS PERIOD    3

 HEAD WILL BE SAVED ON UNIT   51 AT END OF TIME STEP  107, STRESS PERIOD    3
 
 SOLVING FOR HEAD 
                                                   Max.-Head-Change                         Max.-Flux-Residual
  Residual-Control   Outer-Iter.   Inner-Iter.     Column Row Layer    Maximum-Head-Change  Column Row Layer    Maximum-Flux-Residual          L2-NORM 
          0                 1           1            36   31     2      -0.3127541549E-03      19   46    1         0.1806347665E+00      0.7023041116E+00
          0                 2           1            39   29     2      -0.2001966882E-04      22   15    1         0.4840578561E-02      0.2651961603E-01
          0                 3           1            37   31     2      -0.2290967853E-04      37   31    2        -0.1183695314E-02      0.1125760112E-01
          0                 4           1            34   32     2      -0.9778877902E-05      39   29    2        -0.7546782034E-03      0.7854133639E-02

    ------------------------------------------------
       NWT REQUIRED            4 OUTER ITERATIONS 
       AND A TOTAL OF          4 INNER ITERATIONS.
    ------------------------------------------------

 OUTPUT CONTROL FOR STRESS PERIOD    3   TIME STEP  108
    SAVE HEAD FOR ALL LAYERS
 SOLVING FOR ZETA FOR LAYER     1 ZONE     2

     727 UPPER PART EQS.       739 LOWER PART EQS.    BAND WIDTH + 1 =   33
 STRESS PERIOD=  3 TIMESTEP=108 LAYER=  1 ZONE=  2 ACTIVE CELLS= 1466 NUMBER OF EQUATIONS=    1466
 SOLVING FOR ZETA FOR LAYER     2 ZONE     2

     635 UPPER PART EQS.       636 LOWER PART EQS.    BAND WIDTH + 1 =   31
 STRESS PERIOD=  3 TIMESTEP=108 LAYER=  2 ZONE=  2 ACTIVE CELLS= 1271 NUMBER OF EQUATIONS=    1271
 UBUDSV SAVING "      ZETASRF  1" ON UNIT 55 AT TIME STEP108, STRESS PERIOD    3

 HEAD WILL BE SAVED ON UNIT   51 AT END OF TIME STEP  108, STRESS PERIOD    3
 
 SOLVING FOR HEAD 
                                                   Max.-Head-Change                         Max.-Flux-Residual
  Residual-Control   Outer-Iter.   Inner-Iter.     Column Row Layer    Maximum-Head-Change  Column Row Layer    Maximum-Flux-Residual          L2-NORM 
          0                 1           1            36   31     2      -0.3169494999E-03      36   31    2        -0.1719662193E+00      0.5515730097E+00
          0                 2           1            39   29     2      -0.2147863575E-04      39   46    1        -0.3300682083E-02      0.2175847014E-01
          0                 3           1            37   31     2      -0.2253961055E-04      37   31    2        -0.1223219860E-02      0.1066851856E-01
          0                 4           1            39   29     2      -0.1000989896E-04      39   29    2        -0.8634665277E-03      0.7674599060E-02
          0                 5           1            37   31     2      -0.1229677630E-04      37   31    2        -0.6295890635E-03      0.6219875001E-02
          0                 6           1            34   32     2      -0.6633836780E-05      39   29    2        -0.5037705609E-03      0.5332597984E-02

    ------------------------------------------------
       NWT REQUIRED            6 OUTER ITERATIONS 
       AND A TOTAL OF          6 INNER ITERATIONS.
    ------------------------------------------------

 OUTPUT CONTROL FOR STRESS PERIOD    3   TIME STEP  109
    SAVE HEAD FOR ALL LAYERS
 SOLVING FOR ZETA FOR LAYER     1 ZONE     2

     729 UPPER PART EQS.       740 LOWER PART EQS.    BAND WIDTH + 1 =   32
 STRESS PERIOD=  3 TIMESTEP=109 LAYER=  1 ZONE=  2 ACTIVE CELLS= 1469 NUMBER OF EQUATIONS=    1469
 SOLVING FOR ZETA FOR LAYER     2 ZONE     2

     635 UPPER PART EQS.       636 LOWER PART EQS.    BAND WIDTH + 1 =   31
 STRESS PERIOD=  3 TIMESTEP=109 LAYER=  2 ZONE=  2 ACTIVE CELLS= 1271 NUMBER OF EQUATIONS=    1271
 UBUDSV SAVING "      ZETASRF  1" ON UNIT 55 AT TIME STEP109, STRESS PERIOD    3

 HEAD WILL BE SAVED ON UNIT   51 AT END OF TIME STEP  109, STRESS PERIOD    3
 
 SOLVING FOR HEAD 
                                                   Max.-Head-Change                         Max.-Flux-Residual
  Residual-Control   Outer-Iter.   Inner-Iter.     Column Row Layer    Maximum-Head-Change  Column Row Layer    Maximum-Flux-Residual          L2-NORM 
          0                 1           1            36   31     2      -0.3183160253E-03      16   43    1        -0.1844816205E+00      0.6411484300E+00
          0                 2           1            39   29     2      -0.1909695439E-04      19   42    1        -0.3370724058E-02      0.2530967136E-01
          0                 3           1            37   31     2      -0.1778154134E-04      37   31    2        -0.1091560532E-02      0.1052680665E-01
          0                 4           1            34   32     2      -0.9250515357E-05      39   29    2        -0.7103957321E-03      0.7357136083E-02

    ------------------------------------------------
       NWT REQUIRED            4 OUTER ITERATIONS 
       AND A TOTAL OF          4 INNER ITERATIONS.
    ------------------------------------------------

 OUTPUT CONTROL FOR STRESS PERIOD    3   TIME STEP  110
    SAVE HEAD FOR ALL LAYERS
 SOLVING FOR ZETA FOR LAYER     1 ZONE     2

     725 UPPER PART EQS.       734 LOWER PART EQS.    BAND WIDTH + 1 =   31
 STRESS PERIOD=  3 TIMESTEP=110 LAYER=  1 ZONE=  2 ACTIVE CELLS= 1459 NUMBER OF EQUATIONS=    1459
 SOLVING FOR ZETA FOR LAYER     2 ZONE     2

     635 UPPER PART EQS.       636 LOWER PART EQS.    BAND WIDTH + 1 =   31
 STRESS PERIOD=  3 TIMESTEP=110 LAYER=  2 ZONE=  2 ACTIVE CELLS= 1271 NUMBER OF EQUATIONS=    1271
 UBUDSV SAVING "      ZETASRF  1" ON UNIT 55 AT TIME STEP110, STRESS PERIOD    3

 HEAD WILL BE SAVED ON UNIT   51 AT END OF TIME STEP  110, STRESS PERIOD    3
 
 SOLVING FOR HEAD 
                                                   Max.-Head-Change                         Max.-Flux-Residual
  Residual-Control   Outer-Iter.   Inner-Iter.     Column Row Layer    Maximum-Head-Change  Column Row Layer    Maximum-Flux-Residual          L2-NORM 
          0                 1           1            15   40     1      -0.3715268799E-03      15   22    1        -0.2692306033E+00      0.9350632344E+00
          0                 2           1            39   29     2      -0.1964210981E-04      18   39    1        -0.5328638798E-02      0.2905943814E-01
          0                 3           1            37   31     2      -0.2239777146E-04      37   31    2        -0.1188337712E-02      0.1207416203E-01
          0                 4           1            34   32     2      -0.1067111188E-04      39   29    2        -0.7218401971E-03      0.8791122713E-02
          0                 5           1            37   31     2      -0.1296410079E-04      37   31    2        -0.6197401153E-03      0.7522673847E-02
          0                 6           1            34   32     2      -0.7966722975E-05      33   31    2        -0.5051482577E-03      0.6683650603E-02

    ------------------------------------------------
       NWT REQUIRED            6 OUTER ITERATIONS 
       AND A TOTAL OF          6 INNER ITERATIONS.
    ------------------------------------------------

 OUTPUT CONTROL FOR STRESS PERIOD    3   TIME STEP  111
    SAVE HEAD FOR ALL LAYERS
 SOLVING FOR ZETA FOR LAYER     1 ZONE     2

     727 UPPER PART EQS.       731 LOWER PART EQS.    BAND WIDTH + 1 =   27
 STRESS PERIOD=  3 TIMESTEP=111 LAYER=  1 ZONE=  2 ACTIVE CELLS= 1458 NUMBER OF EQUATIONS=    1458
 SOLVING FOR ZETA FOR LAYER     2 ZONE     2

     635 UPPER PART EQS.       636 LOWER PART EQS.    BAND WIDTH + 1 =   31
 STRESS PERIOD=  3 TIMESTEP=111 LAYER=  2 ZONE=  2 ACTIVE CELLS= 1271 NUMBER OF EQUATIONS=    1271
 UBUDSV SAVING "      ZETASRF  1" ON UNIT 55 AT TIME STEP111, STRESS PERIOD    3

 HEAD WILL BE SAVED ON UNIT   51 AT END OF TIME STEP  111, STRESS PERIOD    3
 
 SOLVING FOR HEAD 
                                                   Max.-Head-Change                         Max.-Flux-Residual
  Residual-Control   Outer-Iter.   Inner-Iter.     Column Row Layer    Maximum-Head-Change  Column Row Layer    Maximum-Flux-Residual          L2-NORM 
          0                 1           1            15   22     1       0.3560711241E-03      15   40    1         0.2585255460E+00      0.7925217708E+00
          0                 2           1            39   29     2      -0.1862555299E-04      11   24    1        -0.4943188904E-02      0.2846890685E-01
          0                 3           1            37   31     2      -0.2163548896E-04      37   31    2        -0.1123680580E-02      0.1052235684E-01
          0                 4           1            39   29     2      -0.8789793809E-05      39   29    2        -0.6447055591E-03      0.6952749649E-02

    ------------------------------------------------
       NWT REQUIRED            4 OUTER ITERATIONS 
       AND A TOTAL OF          4 INNER ITERATIONS.
    ------------------------------------------------

 OUTPUT CONTROL FOR STRESS PERIOD    3   TIME STEP  112
    SAVE HEAD FOR ALL LAYERS
 SOLVING FOR ZETA FOR LAYER     1 ZONE     2

     727 UPPER PART EQS.       737 LOWER PART EQS.    BAND WIDTH + 1 =   31
 STRESS PERIOD=  3 TIMESTEP=112 LAYER=  1 ZONE=  2 ACTIVE CELLS= 1464 NUMBER OF EQUATIONS=    1464
 SOLVING FOR ZETA FOR LAYER     2 ZONE     2

     635 UPPER PART EQS.       636 LOWER PART EQS.    BAND WIDTH + 1 =   31
 STRESS PERIOD=  3 TIMESTEP=112 LAYER=  2 ZONE=  2 ACTIVE CELLS= 1271 NUMBER OF EQUATIONS=    1271
 UBUDSV SAVING "      ZETASRF  1" ON UNIT 55 AT TIME STEP112, STRESS PERIOD    3

 HEAD WILL BE SAVED ON UNIT   51 AT END OF TIME STEP  112, STRESS PERIOD    3
 
 SOLVING FOR HEAD 
                                                   Max.-Head-Change                         Max.-Flux-Residual
  Residual-Control   Outer-Iter.   Inner-Iter.     Column Row Layer    Maximum-Head-Change  Column Row Layer    Maximum-Flux-Residual          L2-NORM 
          0                 1           1            38   47     1      -0.3571860284E-03      38   15    1        -0.2385369952E+00      0.7730228221E+00
          0                 2           1            40   45     1      -0.2653089650E-04      35   48    1        -0.6251515413E-02      0.3590214216E-01
          0                 3           1            37   31     2      -0.1940802084E-04      37   31    2        -0.1200573716E-02      0.1456764986E-01
          0                 4           1            39   29     2      -0.1327853882E-04      39   29    2        -0.9037321132E-03      0.1015340891E-01
          0                 5           1            37   31     2      -0.1360432317E-04      37   31    2        -0.7123577442E-03      0.8342240474E-02
          0                 6           1            34   32     2      -0.9125950870E-05      39   29    2        -0.5740899090E-03      0.7168574073E-02

    ------------------------------------------------
       NWT REQUIRED            6 OUTER ITERATIONS 
       AND A TOTAL OF          6 INNER ITERATIONS.
    ------------------------------------------------

 OUTPUT CONTROL FOR STRESS PERIOD    3   TIME STEP  113
    SAVE HEAD FOR ALL LAYERS
 SOLVING FOR ZETA FOR LAYER     1 ZONE     2

     729 UPPER PART EQS.       732 LOWER PART EQS.    BAND WIDTH + 1 =   29
 STRESS PERIOD=  3 TIMESTEP=113 LAYER=  1 ZONE=  2 ACTIVE CELLS= 1461 NUMBER OF EQUATIONS=    1461
 SOLVING FOR ZETA FOR LAYER     2 ZONE     2

     635 UPPER PART EQS.       636 LOWER PART EQS.    BAND WIDTH + 1 =   31
 STRESS PERIOD=  3 TIMESTEP=113 LAYER=  2 ZONE=  2 ACTIVE CELLS= 1271 NUMBER OF EQUATIONS=    1271
 UBUDSV SAVING "      ZETASRF  1" ON UNIT 55 AT TIME STEP113, STRESS PERIOD    3

 HEAD WILL BE SAVED ON UNIT   51 AT END OF TIME STEP  113, STRESS PERIOD    3
 
 SOLVING FOR HEAD 
                                                   Max.-Head-Change                         Max.-Flux-Residual
  Residual-Control   Outer-Iter.   Inner-Iter.     Column Row Layer    Maximum-Head-Change  Column Row Layer    Maximum-Flux-Residual          L2-NORM 
          0                 1           1            36   31     2      -0.3341689947E-03      38   15    1         0.2292823332E+00      0.7902944193E+00
          0                 2           1            39   29     2      -0.1901721011E-04      35   48    1         0.5568546002E-02      0.2991314078E-01
          0                 3           1            37   31     2      -0.1740876797E-04      37   31    2        -0.1128968407E-02      0.9532519311E-02
          0                 4           1            39   29     2      -0.8317877444E-05      39   29    2        -0.6338993345E-03      0.5928557470E-02

    ------------------------------------------------
       NWT REQUIRED            4 OUTER ITERATIONS 
       AND A TOTAL OF          4 INNER ITERATIONS.
    ------------------------------------------------

 OUTPUT CONTROL FOR STRESS PERIOD    3   TIME STEP  114
    SAVE HEAD FOR ALL LAYERS
 SOLVING FOR ZETA FOR LAYER     1 ZONE     2

     727 UPPER PART EQS.       740 LOWER PART EQS.    BAND WIDTH + 1 =   34
 STRESS PERIOD=  3 TIMESTEP=114 LAYER=  1 ZONE=  2 ACTIVE CELLS= 1467 NUMBER OF EQUATIONS=    1467
 SOLVING FOR ZETA FOR LAYER     2 ZONE     2

     635 UPPER PART EQS.       636 LOWER PART EQS.    BAND WIDTH + 1 =   31
 STRESS PERIOD=  3 TIMESTEP=114 LAYER=  2 ZONE=  2 ACTIVE CELLS= 1271 NUMBER OF EQUATIONS=    1271
 UBUDSV SAVING "      ZETASRF  1" ON UNIT 55 AT TIME STEP114, STRESS PERIOD    3

 HEAD WILL BE SAVED ON UNIT   51 AT END OF TIME STEP  114, STRESS PERIOD    3
 
 SOLVING FOR HEAD 
                                                   Max.-Head-Change                         Max.-Flux-Residual
  Residual-Control   Outer-Iter.   Inner-Iter.     Column Row Layer    Maximum-Head-Change  Column Row Layer    Maximum-Flux-Residual          L2-NORM 
          0                 1           1            36   31     2      -0.3378482592E-03      36   31    2        -0.1868874282E+00      0.5779760934E+00
          0                 2           1            39   29     2      -0.2073136321E-04      11   40    1         0.3280131177E-02      0.2220413913E-01
          0                 3           1            37   31     2      -0.1926116411E-04      37   31    2        -0.1166898997E-02      0.1039414905E-01
          0                 4           1            34   32     2      -0.1015098928E-04      39   29    2        -0.8217849494E-03      0.7296866647E-02
          0                 5           1            37   31     2      -0.1087360325E-04      37   31    2        -0.6151685819E-03      0.5978863123E-02
          0                 6           1            34   32     2      -0.7317736861E-05      39   29    2        -0.4758987324E-03      0.5140958217E-02

    ------------------------------------------------
       NWT REQUIRED            6 OUTER ITERATIONS 
       AND A TOTAL OF          6 INNER ITERATIONS.
    ------------------------------------------------

 OUTPUT CONTROL FOR STRESS PERIOD    3   TIME STEP  115
    SAVE HEAD FOR ALL LAYERS
 SOLVING FOR ZETA FOR LAYER     1 ZONE     2

     723 UPPER PART EQS.       735 LOWER PART EQS.    BAND WIDTH + 1 =   33
 STRESS PERIOD=  3 TIMESTEP=115 LAYER=  1 ZONE=  2 ACTIVE CELLS= 1458 NUMBER OF EQUATIONS=    1458
 SOLVING FOR ZETA FOR LAYER     2 ZONE     2

     635 UPPER PART EQS.       636 LOWER PART EQS.    BAND WIDTH + 1 =   31
 STRESS PERIOD=  3 TIMESTEP=115 LAYER=  2 ZONE=  2 ACTIVE CELLS= 1271 NUMBER OF EQUATIONS=    1271
 UBUDSV SAVING "      ZETASRF  1" ON UNIT 55 AT TIME STEP115, STRESS PERIOD    3

 HEAD WILL BE SAVED ON UNIT   51 AT END OF TIME STEP  115, STRESS PERIOD    3
 
 SOLVING FOR HEAD 
                                                   Max.-Head-Change                         Max.-Flux-Residual
  Residual-Control   Outer-Iter.   Inner-Iter.     Column Row Layer    Maximum-Head-Change  Column Row Layer    Maximum-Flux-Residual          L2-NORM 
          0                 1           1            36   31     2      -0.3406583008E-03      23   15    1        -0.1988220551E+00      0.6560601324E+00
          0                 2           1            39   29     2      -0.1938362507E-04      20   15    1         0.3758475346E-02      0.2323494328E-01
          0                 3           1            37   31     2      -0.1834906860E-04      37   31    2        -0.1113426354E-02      0.9785786726E-02
          0                 4           1            34   32     2      -0.9247110867E-05      39   29    2        -0.7361703039E-03      0.6798315400E-02

    ------------------------------------------------
       NWT REQUIRED            4 OUTER ITERATIONS 
       AND A TOTAL OF          4 INNER ITERATIONS.
    ------------------------------------------------

 OUTPUT CONTROL FOR STRESS PERIOD    3   TIME STEP  116
    SAVE HEAD FOR ALL LAYERS
 SOLVING FOR ZETA FOR LAYER     1 ZONE     2

     729 UPPER PART EQS.       733 LOWER PART EQS.    BAND WIDTH + 1 =   28
 STRESS PERIOD=  3 TIMESTEP=116 LAYER=  1 ZONE=  2 ACTIVE CELLS= 1462 NUMBER OF EQUATIONS=    1462
 SOLVING FOR ZETA FOR LAYER     2 ZONE     2

     635 UPPER PART EQS.       636 LOWER PART EQS.    BAND WIDTH + 1 =   31
 STRESS PERIOD=  3 TIMESTEP=116 LAYER=  2 ZONE=  2 ACTIVE CELLS= 1271 NUMBER OF EQUATIONS=    1271
 UBUDSV SAVING "      ZETASRF  1" ON UNIT 55 AT TIME STEP116, STRESS PERIOD    3

 HEAD WILL BE SAVED ON UNIT   51 AT END OF TIME STEP  116, STRESS PERIOD    3
 
 SOLVING FOR HEAD 
                                                   Max.-Head-Change                         Max.-Flux-Residual
  Residual-Control   Outer-Iter.   Inner-Iter.     Column Row Layer    Maximum-Head-Change  Column Row Layer    Maximum-Flux-Residual          L2-NORM 
          0                 1           1            36   31     2      -0.3457516793E-03      36   31    2        -0.1920862794E+00      0.6819924359E+00
          0                 2           1            39   29     2      -0.2171331926E-04      39   46    1        -0.4289751321E-02      0.2697339517E-01
          0                 3           1            37   31     2      -0.2094613316E-04      37   31    2        -0.1205699477E-02      0.1187242324E-01
          0                 4           1            39   29     2      -0.1131585284E-04      39   29    2        -0.8797230179E-03      0.8304019566E-02
          0                 5           1            37   31     2      -0.1213826239E-04      37   31    2        -0.6576362225E-03      0.6711745417E-02
          0                 6           1            34   32     2      -0.7500719172E-05      39   29    2        -0.5175046704E-03      0.5710403219E-02

    ------------------------------------------------
       NWT REQUIRED            6 OUTER ITERATIONS 
       AND A TOTAL OF          6 INNER ITERATIONS.
    ------------------------------------------------

 OUTPUT CONTROL FOR STRESS PERIOD    3   TIME STEP  117
    SAVE HEAD FOR ALL LAYERS
 SOLVING FOR ZETA FOR LAYER     1 ZONE     2

     727 UPPER PART EQS.       740 LOWER PART EQS.    BAND WIDTH + 1 =   34
 STRESS PERIOD=  3 TIMESTEP=117 LAYER=  1 ZONE=  2 ACTIVE CELLS= 1467 NUMBER OF EQUATIONS=    1467
 SOLVING FOR ZETA FOR LAYER     2 ZONE     2

     635 UPPER PART EQS.       636 LOWER PART EQS.    BAND WIDTH + 1 =   31
 STRESS PERIOD=  3 TIMESTEP=117 LAYER=  2 ZONE=  2 ACTIVE CELLS= 1271 NUMBER OF EQUATIONS=    1271
 UBUDSV SAVING "      ZETASRF  1" ON UNIT 55 AT TIME STEP117, STRESS PERIOD    3

 HEAD WILL BE SAVED ON UNIT   51 AT END OF TIME STEP  117, STRESS PERIOD    3
 
 SOLVING FOR HEAD 
                                                   Max.-Head-Change                         Max.-Flux-Residual
  Residual-Control   Outer-Iter.   Inner-Iter.     Column Row Layer    Maximum-Head-Change  Column Row Layer    Maximum-Flux-Residual          L2-NORM 
          0                 1           1            36   31     2      -0.3487010796E-03      19   16    1        -0.1989588476E+00      0.8003831806E+00
          0                 2           1            39   29     2      -0.1953307788E-04      39   46    1         0.3564316240E-02      0.2514477617E-01
          0                 3           1            37   31     2      -0.1833104840E-04      37   31    2        -0.1143123898E-02      0.1040795168E-01
          0                 4           1            34   32     2      -0.9554755323E-05      39   29    2        -0.7211348408E-03      0.7237207767E-02

    ------------------------------------------------
       NWT REQUIRED            4 OUTER ITERATIONS 
       AND A TOTAL OF          4 INNER ITERATIONS.
    ------------------------------------------------

 OUTPUT CONTROL FOR STRESS PERIOD    3   TIME STEP  118
    SAVE HEAD FOR ALL LAYERS
 SOLVING FOR ZETA FOR LAYER     1 ZONE     2

     725 UPPER PART EQS.       740 LOWER PART EQS.    BAND WIDTH + 1 =   36
 STRESS PERIOD=  3 TIMESTEP=118 LAYER=  1 ZONE=  2 ACTIVE CELLS= 1465 NUMBER OF EQUATIONS=    1465
 SOLVING FOR ZETA FOR LAYER     2 ZONE     2

     635 UPPER PART EQS.       636 LOWER PART EQS.    BAND WIDTH + 1 =   31
 STRESS PERIOD=  3 TIMESTEP=118 LAYER=  2 ZONE=  2 ACTIVE CELLS= 1271 NUMBER OF EQUATIONS=    1271
 UBUDSV SAVING "      ZETASRF  1" ON UNIT 55 AT TIME STEP118, STRESS PERIOD    3

 HEAD WILL BE SAVED ON UNIT   51 AT END OF TIME STEP  118, STRESS PERIOD    3
 
 SOLVING FOR HEAD 
                                                   Max.-Head-Change                         Max.-Flux-Residual
  Residual-Control   Outer-Iter.   Inner-Iter.     Column Row Layer    Maximum-Head-Change  Column Row Layer    Maximum-Flux-Residual          L2-NORM 
          0                 1           1            36   31     2      -0.3537525669E-03      36   31    2        -0.1974010766E+00      0.7875324062E+00
          0                 2           1            39   29     2      -0.2047135511E-04      11   40    1         0.3627695517E-02      0.2658229204E-01
          0                 3           1            37   31     2      -0.2146454836E-04      37   31    2        -0.1219530771E-02      0.1106490758E-01
          0                 4           1            34   32     2      -0.1036804976E-04      39   29    2        -0.7691687117E-03      0.7849511277E-02
          0                 5           1            37   31     2      -0.1197352628E-04      37   31    2        -0.6143339803E-03      0.6497929529E-02
          0                 6           1            34   32     2      -0.7223296265E-05      33   31    2        -0.4651829097E-03      0.5664580374E-02

    ------------------------------------------------
       NWT REQUIRED            6 OUTER ITERATIONS 
       AND A TOTAL OF          6 INNER ITERATIONS.
    ------------------------------------------------

 OUTPUT CONTROL FOR STRESS PERIOD    3   TIME STEP  119
    SAVE HEAD FOR ALL LAYERS
 SOLVING FOR ZETA FOR LAYER     1 ZONE     2

     727 UPPER PART EQS.       731 LOWER PART EQS.    BAND WIDTH + 1 =   29
 STRESS PERIOD=  3 TIMESTEP=119 LAYER=  1 ZONE=  2 ACTIVE CELLS= 1458 NUMBER OF EQUATIONS=    1458
 SOLVING FOR ZETA FOR LAYER     2 ZONE     2

     635 UPPER PART EQS.       636 LOWER PART EQS.    BAND WIDTH + 1 =   31
 STRESS PERIOD=  3 TIMESTEP=119 LAYER=  2 ZONE=  2 ACTIVE CELLS= 1271 NUMBER OF EQUATIONS=    1271
 UBUDSV SAVING "      ZETASRF  1" ON UNIT 55 AT TIME STEP119, STRESS PERIOD    3

 HEAD WILL BE SAVED ON UNIT   51 AT END OF TIME STEP  119, STRESS PERIOD    3
 
 SOLVING FOR HEAD 
                                                   Max.-Head-Change                         Max.-Flux-Residual
  Residual-Control   Outer-Iter.   Inner-Iter.     Column Row Layer    Maximum-Head-Change  Column Row Layer    Maximum-Flux-Residual          L2-NORM 
          0                 1           1            22   15     1      -0.3583952314E-03      22   47    1        -0.2990464416E+00      0.9473776116E+00
          0                 2           1            34   32     2      -0.1887828182E-04      19   48    1        -0.5503622257E-02      0.2617066975E-01
          0                 3           1            37   31     2      -0.1886454558E-04      37   31    2        -0.1120274356E-02      0.9915406052E-02
          0                 4           1            34   32     2      -0.8501388300E-05      39   29    2        -0.6531326404E-03      0.6787445918E-02

    ------------------------------------------------
       NWT REQUIRED            4 OUTER ITERATIONS 
       AND A TOTAL OF          4 INNER ITERATIONS.
    ------------------------------------------------

 OUTPUT CONTROL FOR STRESS PERIOD    3   TIME STEP  120
    SAVE HEAD FOR ALL LAYERS
 SOLVING FOR ZETA FOR LAYER     1 ZONE     2

     729 UPPER PART EQS.       737 LOWER PART EQS.    BAND WIDTH + 1 =   29
 STRESS PERIOD=  3 TIMESTEP=120 LAYER=  1 ZONE=  2 ACTIVE CELLS= 1466 NUMBER OF EQUATIONS=    1466
 SOLVING FOR ZETA FOR LAYER     2 ZONE     2

     635 UPPER PART EQS.       636 LOWER PART EQS.    BAND WIDTH + 1 =   31
 STRESS PERIOD=  3 TIMESTEP=120 LAYER=  2 ZONE=  2 ACTIVE CELLS= 1271 NUMBER OF EQUATIONS=    1271
 UBUDSV SAVING "      ZETASRF  1" ON UNIT 55 AT TIME STEP120, STRESS PERIOD    3

 HEAD WILL BE SAVED ON UNIT   51 AT END OF TIME STEP  120, STRESS PERIOD    3
 
 SOLVING FOR HEAD 
                                                   Max.-Head-Change                         Max.-Flux-Residual
  Residual-Control   Outer-Iter.   Inner-Iter.     Column Row Layer    Maximum-Head-Change  Column Row Layer    Maximum-Flux-Residual          L2-NORM 
          0                 1           1            36   31     2      -0.3610940045E-03      22   15    1         0.2879962278E+00      0.1042142020E+01
          0                 2           1            34   32     2      -0.1984760835E-04      19   48    1         0.4529504532E-02      0.2910354973E-01
          0                 3           1            37   31     2      -0.2355739542E-04      37   31    2        -0.1206438215E-02      0.1165203929E-01
          0                 4           1            34   32     2      -0.1012636013E-04      39   29    2        -0.7198950295E-03      0.8157228298E-02
          0                 5           1            37   31     2      -0.1249904524E-04      37   31    2        -0.6194862977E-03      0.6718017456E-02
          0                 6           1            34   32     2      -0.7370327795E-05      39   29    2        -0.4712305229E-03      0.5823972815E-02

    ------------------------------------------------
       NWT REQUIRED            6 OUTER ITERATIONS 
       AND A TOTAL OF          6 INNER ITERATIONS.
    ------------------------------------------------

 OUTPUT CONTROL FOR STRESS PERIOD    3   TIME STEP  121
    SAVE HEAD FOR ALL LAYERS
 SOLVING FOR ZETA FOR LAYER     1 ZONE     2

     727 UPPER PART EQS.       738 LOWER PART EQS.    BAND WIDTH + 1 =   32
 STRESS PERIOD=  3 TIMESTEP=121 LAYER=  1 ZONE=  2 ACTIVE CELLS= 1465 NUMBER OF EQUATIONS=    1465
 SOLVING FOR ZETA FOR LAYER     2 ZONE     2

     635 UPPER PART EQS.       636 LOWER PART EQS.    BAND WIDTH + 1 =   31
 STRESS PERIOD=  3 TIMESTEP=121 LAYER=  2 ZONE=  2 ACTIVE CELLS= 1271 NUMBER OF EQUATIONS=    1271
 UBUDSV SAVING "      ZETASRF  1" ON UNIT 55 AT TIME STEP121, STRESS PERIOD    3

 HEAD WILL BE SAVED ON UNIT   51 AT END OF TIME STEP  121, STRESS PERIOD    3
 
 SOLVING FOR HEAD 
                                                   Max.-Head-Change                         Max.-Flux-Residual
  Residual-Control   Outer-Iter.   Inner-Iter.     Column Row Layer    Maximum-Head-Change  Column Row Layer    Maximum-Flux-Residual          L2-NORM 
          0                 1           1            36   31     2      -0.3642998079E-03      38   47    1        -0.2452369216E+00      0.9161282876E+00
          0                 2           1            39   29     2      -0.1934766134E-04      35   48    1        -0.4368734384E-02      0.2765835421E-01
          0                 3           1            37   31     2      -0.2139434321E-04      37   31    2        -0.1174058068E-02      0.1101388334E-01
          0                 4           1            39   29     2      -0.9798974587E-05      39   29    2        -0.7132992307E-03      0.7669112048E-02

    ------------------------------------------------
       NWT REQUIRED            4 OUTER ITERATIONS 
       AND A TOTAL OF          4 INNER ITERATIONS.
    ------------------------------------------------

 OUTPUT CONTROL FOR STRESS PERIOD    3   TIME STEP  122
    SAVE HEAD FOR ALL LAYERS
 SOLVING FOR ZETA FOR LAYER     1 ZONE     2

     723 UPPER PART EQS.       732 LOWER PART EQS.    BAND WIDTH + 1 =   30
 STRESS PERIOD=  3 TIMESTEP=122 LAYER=  1 ZONE=  2 ACTIVE CELLS= 1455 NUMBER OF EQUATIONS=    1455
 SOLVING FOR ZETA FOR LAYER     2 ZONE     2

     635 UPPER PART EQS.       636 LOWER PART EQS.    BAND WIDTH + 1 =   31
 STRESS PERIOD=  3 TIMESTEP=122 LAYER=  2 ZONE=  2 ACTIVE CELLS= 1271 NUMBER OF EQUATIONS=    1271
 UBUDSV SAVING "      ZETASRF  1" ON UNIT 55 AT TIME STEP122, STRESS PERIOD    3

 HEAD WILL BE SAVED ON UNIT   51 AT END OF TIME STEP  122, STRESS PERIOD    3
 
 SOLVING FOR HEAD 
                                                   Max.-Head-Change                         Max.-Flux-Residual
  Residual-Control   Outer-Iter.   Inner-Iter.     Column Row Layer    Maximum-Head-Change  Column Row Layer    Maximum-Flux-Residual          L2-NORM 
          0                 1           1            36   31     2      -0.3696308517E-03      38   47    1         0.2362526920E+00      0.8359602522E+00
          0                 2           1            34   32     2      -0.2069258912E-04      35   16    1         0.3981997823E-02      0.2423698024E-01
          0                 3           1            37   31     2      -0.2411135023E-04      37   31    2        -0.1239272330E-02      0.1040755256E-01
          0                 4           1            34   32     2      -0.9414814260E-05      39   29    2        -0.7486484109E-03      0.7420631598E-02

    ------------------------------------------------
       NWT REQUIRED            4 OUTER ITERATIONS 
       AND A TOTAL OF          4 INNER ITERATIONS.
    ------------------------------------------------

 OUTPUT CONTROL FOR STRESS PERIOD    3   TIME STEP  123
    SAVE HEAD FOR ALL LAYERS
 SOLVING FOR ZETA FOR LAYER     1 ZONE     2

     727 UPPER PART EQS.       735 LOWER PART EQS.    BAND WIDTH + 1 =   30
 STRESS PERIOD=  3 TIMESTEP=123 LAYER=  1 ZONE=  2 ACTIVE CELLS= 1462 NUMBER OF EQUATIONS=    1462
 SOLVING FOR ZETA FOR LAYER     2 ZONE     2

     635 UPPER PART EQS.       636 LOWER PART EQS.    BAND WIDTH + 1 =   31
 STRESS PERIOD=  3 TIMESTEP=123 LAYER=  2 ZONE=  2 ACTIVE CELLS= 1271 NUMBER OF EQUATIONS=    1271
 UBUDSV SAVING "      ZETASRF  1" ON UNIT 55 AT TIME STEP123, STRESS PERIOD    3

 HEAD WILL BE SAVED ON UNIT   51 AT END OF TIME STEP  123, STRESS PERIOD    3
 
 SOLVING FOR HEAD 
                                                   Max.-Head-Change                         Max.-Flux-Residual
  Residual-Control   Outer-Iter.   Inner-Iter.     Column Row Layer    Maximum-Head-Change  Column Row Layer    Maximum-Flux-Residual          L2-NORM 
          0                 1           1            36   31     2      -0.3733269144E-03      36   31    2        -0.2112226486E+00      0.5900374189E+00
          0                 2           1            34   32     2      -0.2086862993E-04      39   29    2        -0.3379574030E-02      0.2243219078E-01
          0                 3           1            37   31     2      -0.2229594096E-04      37   31    2        -0.1221633323E-02      0.9605113125E-02
          0                 4           1            34   32     2      -0.8700907886E-05      39   29    2        -0.7581384189E-03      0.6545617669E-02

    ------------------------------------------------
       NWT REQUIRED            4 OUTER ITERATIONS 
       AND A TOTAL OF          4 INNER ITERATIONS.
    ------------------------------------------------

 OUTPUT CONTROL FOR STRESS PERIOD    3   TIME STEP  124
    SAVE HEAD FOR ALL LAYERS
 SOLVING FOR ZETA FOR LAYER     1 ZONE     2

     731 UPPER PART EQS.       741 LOWER PART EQS.    BAND WIDTH + 1 =   31
 STRESS PERIOD=  3 TIMESTEP=124 LAYER=  1 ZONE=  2 ACTIVE CELLS= 1472 NUMBER OF EQUATIONS=    1472
 SOLVING FOR ZETA FOR LAYER     2 ZONE     2

     635 UPPER PART EQS.       636 LOWER PART EQS.    BAND WIDTH + 1 =   31
 STRESS PERIOD=  3 TIMESTEP=124 LAYER=  2 ZONE=  2 ACTIVE CELLS= 1271 NUMBER OF EQUATIONS=    1271
 UBUDSV SAVING "      ZETASRF  1" ON UNIT 55 AT TIME STEP124, STRESS PERIOD    3

 HEAD WILL BE SAVED ON UNIT   51 AT END OF TIME STEP  124, STRESS PERIOD    3
 
 SOLVING FOR HEAD 
                                                   Max.-Head-Change                         Max.-Flux-Residual
  Residual-Control   Outer-Iter.   Inner-Iter.     Column Row Layer    Maximum-Head-Change  Column Row Layer    Maximum-Flux-Residual          L2-NORM 
          0                 1           1            36   31     2      -0.3766492349E-03      36   31    2        -0.2140592337E+00      0.5315456390E+00
          0                 2           1            39   29     2      -0.2236911842E-04      33   48    1        -0.3996746350E-02      0.2472775249E-01
          0                 3           1            37   31     2      -0.2005166777E-04      37   31    2        -0.1228895906E-02      0.1165621905E-01
          0                 4           1            39   29     2      -0.1139307264E-04      39   29    2        -0.9099707320E-03      0.8307942219E-02
          0                 5           1            37   31     2      -0.1215472252E-04      37   31    2        -0.6791839865E-03      0.6847279057E-02
          0                 6           1            34   32     2      -0.7979324487E-05      39   29    2        -0.5392488943E-03      0.5898388033E-02

    ------------------------------------------------
       NWT REQUIRED            6 OUTER ITERATIONS 
       AND A TOTAL OF          6 INNER ITERATIONS.
    ------------------------------------------------

 OUTPUT CONTROL FOR STRESS PERIOD    3   TIME STEP  125
    SAVE HEAD FOR ALL LAYERS
 SOLVING FOR ZETA FOR LAYER     1 ZONE     2

     729 UPPER PART EQS.       736 LOWER PART EQS.    BAND WIDTH + 1 =   29
 STRESS PERIOD=  3 TIMESTEP=125 LAYER=  1 ZONE=  2 ACTIVE CELLS= 1465 NUMBER OF EQUATIONS=    1465
 SOLVING FOR ZETA FOR LAYER     2 ZONE     2

     635 UPPER PART EQS.       636 LOWER PART EQS.    BAND WIDTH + 1 =   31
 STRESS PERIOD=  3 TIMESTEP=125 LAYER=  2 ZONE=  2 ACTIVE CELLS= 1271 NUMBER OF EQUATIONS=    1271
 UBUDSV SAVING "      ZETASRF  1" ON UNIT 55 AT TIME STEP125, STRESS PERIOD    3

 HEAD WILL BE SAVED ON UNIT   51 AT END OF TIME STEP  125, STRESS PERIOD    3
 
 SOLVING FOR HEAD 
                                                   Max.-Head-Change                         Max.-Flux-Residual
  Residual-Control   Outer-Iter.   Inner-Iter.     Column Row Layer    Maximum-Head-Change  Column Row Layer    Maximum-Flux-Residual          L2-NORM 
          0                 1           1            36   31     2      -0.3799797991E-03      36   31    2        -0.2169751525E+00      0.7383669006E+00
          0                 2           1            34   32     2      -0.1976081223E-04      21   48    1        -0.4880402112E-02      0.2875018990E-01
          0                 3           1            37   31     2      -0.1773563686E-04      37   31    2        -0.1151750481E-02      0.1060255270E-01
          0                 4           1            34   32     2      -0.9393717740E-05      39   29    2        -0.6800322178E-03      0.7170774967E-02

    ------------------------------------------------
       NWT REQUIRED            4 OUTER ITERATIONS 
       AND A TOTAL OF          4 INNER ITERATIONS.
    ------------------------------------------------

 OUTPUT CONTROL FOR STRESS PERIOD    3   TIME STEP  126
    SAVE HEAD FOR ALL LAYERS
 SOLVING FOR ZETA FOR LAYER     1 ZONE     2

     725 UPPER PART EQS.       740 LOWER PART EQS.    BAND WIDTH + 1 =   36
 STRESS PERIOD=  3 TIMESTEP=126 LAYER=  1 ZONE=  2 ACTIVE CELLS= 1465 NUMBER OF EQUATIONS=    1465
 SOLVING FOR ZETA FOR LAYER     2 ZONE     2

     635 UPPER PART EQS.       636 LOWER PART EQS.    BAND WIDTH + 1 =   31
 STRESS PERIOD=  3 TIMESTEP=126 LAYER=  2 ZONE=  2 ACTIVE CELLS= 1271 NUMBER OF EQUATIONS=    1271
 UBUDSV SAVING "      ZETASRF  1" ON UNIT 55 AT TIME STEP126, STRESS PERIOD    3

 HEAD WILL BE SAVED ON UNIT   51 AT END OF TIME STEP  126, STRESS PERIOD    3
 
 SOLVING FOR HEAD 
                                                   Max.-Head-Change                         Max.-Flux-Residual
  Residual-Control   Outer-Iter.   Inner-Iter.     Column Row Layer    Maximum-Head-Change  Column Row Layer    Maximum-Flux-Residual          L2-NORM 
          0                 1           1            36   31     2      -0.3850381406E-03      36   31    2        -0.2199769616E+00      0.7178603702E+00
          0                 2           1            34   32     2      -0.2134487269E-04      21   48    1         0.4487702559E-02      0.2834578572E-01
          0                 3           1            37   31     2      -0.2073911828E-04      37   31    2        -0.1238387622E-02      0.1126652178E-01
          0                 4           1            34   32     2      -0.1079732315E-04      39   29    2        -0.8038698991E-03      0.7824340041E-02
          0                 5           1            37   31     2      -0.1151484140E-04      37   31    2        -0.6321302105E-03      0.6362365008E-02
          0                 6           1            34   32     2      -0.7469340548E-05      39   29    2        -0.4751701927E-03      0.5452303448E-02

    ------------------------------------------------
       NWT REQUIRED            6 OUTER ITERATIONS 
       AND A TOTAL OF          6 INNER ITERATIONS.
    ------------------------------------------------

 OUTPUT CONTROL FOR STRESS PERIOD    3   TIME STEP  127
    SAVE HEAD FOR ALL LAYERS
 SOLVING FOR ZETA FOR LAYER     1 ZONE     2

     727 UPPER PART EQS.       735 LOWER PART EQS.    BAND WIDTH + 1 =   31
 STRESS PERIOD=  3 TIMESTEP=127 LAYER=  1 ZONE=  2 ACTIVE CELLS= 1462 NUMBER OF EQUATIONS=    1462
 SOLVING FOR ZETA FOR LAYER     2 ZONE     2

     635 UPPER PART EQS.       636 LOWER PART EQS.    BAND WIDTH + 1 =   31
 STRESS PERIOD=  3 TIMESTEP=127 LAYER=  2 ZONE=  2 ACTIVE CELLS= 1271 NUMBER OF EQUATIONS=    1271
 UBUDSV SAVING "      ZETASRF  1" ON UNIT 55 AT TIME STEP127, STRESS PERIOD    3

 HEAD WILL BE SAVED ON UNIT   51 AT END OF TIME STEP  127, STRESS PERIOD    3
 
 SOLVING FOR HEAD 
                                                   Max.-Head-Change                         Max.-Flux-Residual
  Residual-Control   Outer-Iter.   Inner-Iter.     Column Row Layer    Maximum-Head-Change  Column Row Layer    Maximum-Flux-Residual          L2-NORM 
          0                 1           1            36   31     2      -0.3879647668E-03      36   31    2        -0.2229957581E+00      0.7229588784E+00
          0                 2           1            34   32     2      -0.2073609267E-04      34   15    1         0.3403545080E-02      0.2720518332E-01
          0                 3           1            37   31     2      -0.1890150225E-04      37   31    2        -0.1186350110E-02      0.1159186756E-01
          0                 4           1            39   29     2      -0.1091254792E-04      39   29    2        -0.8290580251E-03      0.8157584243E-02
          0                 5           1            37   31     2      -0.1210413164E-04      37   31    2        -0.6465912321E-03      0.6714313874E-02
          0                 6           1            34   32     2      -0.7452073545E-05      39   29    2        -0.5161295546E-03      0.5776220388E-02

    ------------------------------------------------
       NWT REQUIRED            6 OUTER ITERATIONS 
       AND A TOTAL OF          6 INNER ITERATIONS.
    ------------------------------------------------

 OUTPUT CONTROL FOR STRESS PERIOD    3   TIME STEP  128
    SAVE HEAD FOR ALL LAYERS
 SOLVING FOR ZETA FOR LAYER     1 ZONE     2

     723 UPPER PART EQS.       737 LOWER PART EQS.    BAND WIDTH + 1 =   35
 STRESS PERIOD=  3 TIMESTEP=128 LAYER=  1 ZONE=  2 ACTIVE CELLS= 1460 NUMBER OF EQUATIONS=    1460
 SOLVING FOR ZETA FOR LAYER     2 ZONE     2

     635 UPPER PART EQS.       636 LOWER PART EQS.    BAND WIDTH + 1 =   31
 STRESS PERIOD=  3 TIMESTEP=128 LAYER=  2 ZONE=  2 ACTIVE CELLS= 1271 NUMBER OF EQUATIONS=    1271
 UBUDSV SAVING "      ZETASRF  1" ON UNIT 55 AT TIME STEP128, STRESS PERIOD    3

 HEAD WILL BE SAVED ON UNIT   51 AT END OF TIME STEP  128, STRESS PERIOD    3
 
 SOLVING FOR HEAD 
                                                   Max.-Head-Change                         Max.-Flux-Residual
  Residual-Control   Outer-Iter.   Inner-Iter.     Column Row Layer    Maximum-Head-Change  Column Row Layer    Maximum-Flux-Residual          L2-NORM 
          0                 1           1            36   31     2      -0.3923568242E-03      36   31    2        -0.2260384560E+00      0.7105796134E+00
          0                 2           1            34   32     2      -0.1961582285E-04      38   47    1         0.3636687562E-02      0.2181020110E-01
          0                 3           1            37   31     2      -0.2098489963E-04      37   31    2        -0.1165633129E-02      0.8938779129E-02
          0                 4           1            34   32     2      -0.8126361254E-05      39   29    2        -0.6684200463E-03      0.6153722724E-02

    ------------------------------------------------
       NWT REQUIRED            4 OUTER ITERATIONS 
       AND A TOTAL OF          4 INNER ITERATIONS.
    ------------------------------------------------

 OUTPUT CONTROL FOR STRESS PERIOD    3   TIME STEP  129
    SAVE HEAD FOR ALL LAYERS
 SOLVING FOR ZETA FOR LAYER     1 ZONE     2

     727 UPPER PART EQS.       740 LOWER PART EQS.    BAND WIDTH + 1 =   34
 STRESS PERIOD=  3 TIMESTEP=129 LAYER=  1 ZONE=  2 ACTIVE CELLS= 1467 NUMBER OF EQUATIONS=    1467
 SOLVING FOR ZETA FOR LAYER     2 ZONE     2

     635 UPPER PART EQS.       636 LOWER PART EQS.    BAND WIDTH + 1 =   31
 STRESS PERIOD=  3 TIMESTEP=129 LAYER=  2 ZONE=  2 ACTIVE CELLS= 1271 NUMBER OF EQUATIONS=    1271
 UBUDSV SAVING "      ZETASRF  1" ON UNIT 55 AT TIME STEP129, STRESS PERIOD    3

 HEAD WILL BE SAVED ON UNIT   51 AT END OF TIME STEP  129, STRESS PERIOD    3
 
 SOLVING FOR HEAD 
                                                   Max.-Head-Change                         Max.-Flux-Residual
  Residual-Control   Outer-Iter.   Inner-Iter.     Column Row Layer    Maximum-Head-Change  Column Row Layer    Maximum-Flux-Residual          L2-NORM 
          0                 1           1            36   31     2      -0.3969236534E-03      15   40    1        -0.2778585233E+00      0.7989405756E+00
          0                 2           1            34   32     2      -0.1997694414E-04      18   39    1        -0.4852874893E-02      0.2553810104E-01
          0                 3           1            37   31     2      -0.2055477938E-04      37   31    2        -0.1177002898E-02      0.1004934106E-01
          0                 4           1            34   32     2      -0.8719961757E-05      39   29    2        -0.6652054445E-03      0.6871020890E-02

    ------------------------------------------------
       NWT REQUIRED            4 OUTER ITERATIONS 
       AND A TOTAL OF          4 INNER ITERATIONS.
    ------------------------------------------------

 OUTPUT CONTROL FOR STRESS PERIOD    3   TIME STEP  130
    SAVE HEAD FOR ALL LAYERS
 SOLVING FOR ZETA FOR LAYER     1 ZONE     2

     727 UPPER PART EQS.       740 LOWER PART EQS.    BAND WIDTH + 1 =   34
 STRESS PERIOD=  3 TIMESTEP=130 LAYER=  1 ZONE=  2 ACTIVE CELLS= 1467 NUMBER OF EQUATIONS=    1467
 SOLVING FOR ZETA FOR LAYER     2 ZONE     2

     635 UPPER PART EQS.       636 LOWER PART EQS.    BAND WIDTH + 1 =   31
 STRESS PERIOD=  3 TIMESTEP=130 LAYER=  2 ZONE=  2 ACTIVE CELLS= 1271 NUMBER OF EQUATIONS=    1271
 UBUDSV SAVING "      ZETASRF  1" ON UNIT 55 AT TIME STEP130, STRESS PERIOD    3

 HEAD WILL BE SAVED ON UNIT   51 AT END OF TIME STEP  130, STRESS PERIOD    3
 
 SOLVING FOR HEAD 
                                                   Max.-Head-Change                         Max.-Flux-Residual
  Residual-Control   Outer-Iter.   Inner-Iter.     Column Row Layer    Maximum-Head-Change  Column Row Layer    Maximum-Flux-Residual          L2-NORM 
          0                 1           1            36   31     2      -0.4016447799E-03      15   40    1         0.2675144828E+00      0.8928462906E+00
          0                 2           1            34   32     2      -0.2155726084E-04      12   41    1         0.4676630522E-02      0.2502212826E-01
          0                 3           1            37   31     2      -0.2231465359E-04      37   31    2        -0.1237677374E-02      0.1142033742E-01
          0                 4           1            34   32     2      -0.1099008974E-04      39   29    2        -0.8197623851E-03      0.8287451474E-02
          0                 5           1            37   31     2      -0.1244213574E-04      37   31    2        -0.6594700289E-03      0.6951422370E-02
          0                 6           1            34   32     2      -0.8134628436E-05      33   31    2        -0.5258372021E-03      0.6100251858E-02

    ------------------------------------------------
       NWT REQUIRED            6 OUTER ITERATIONS 
       AND A TOTAL OF          6 INNER ITERATIONS.
    ------------------------------------------------

 OUTPUT CONTROL FOR STRESS PERIOD    3   TIME STEP  131
    SAVE HEAD FOR ALL LAYERS
 SOLVING FOR ZETA FOR LAYER     1 ZONE     2

     727 UPPER PART EQS.       731 LOWER PART EQS.    BAND WIDTH + 1 =   28
 STRESS PERIOD=  3 TIMESTEP=131 LAYER=  1 ZONE=  2 ACTIVE CELLS= 1458 NUMBER OF EQUATIONS=    1458
 SOLVING FOR ZETA FOR LAYER     2 ZONE     2

     635 UPPER PART EQS.       636 LOWER PART EQS.    BAND WIDTH + 1 =   31
 STRESS PERIOD=  3 TIMESTEP=131 LAYER=  2 ZONE=  2 ACTIVE CELLS= 1271 NUMBER OF EQUATIONS=    1271
 UBUDSV SAVING "      ZETASRF  1" ON UNIT 55 AT TIME STEP131, STRESS PERIOD    3

 HEAD WILL BE SAVED ON UNIT   51 AT END OF TIME STEP  131, STRESS PERIOD    3
 
 SOLVING FOR HEAD 
                                                   Max.-Head-Change                         Max.-Flux-Residual
  Residual-Control   Outer-Iter.   Inner-Iter.     Column Row Layer    Maximum-Head-Change  Column Row Layer    Maximum-Flux-Residual          L2-NORM 
          0                 1           1            36   31     2      -0.4044364597E-03      36   31    2        -0.2355313301E+00      0.7805339299E+00
          0                 2           1            34   32     2      -0.1965279067E-04      22   15    1        -0.3771625800E-02      0.2614929805E-01
          0                 3           1            37   31     2      -0.2174478400E-04      37   31    2        -0.1159692990E-02      0.1006066608E-01
          0                 4           1            39   29     2      -0.8801501290E-05      39   29    2        -0.6742300615E-03      0.6769755204E-02

    ------------------------------------------------
       NWT REQUIRED            4 OUTER ITERATIONS 
       AND A TOTAL OF          4 INNER ITERATIONS.
    ------------------------------------------------

 OUTPUT CONTROL FOR STRESS PERIOD    3   TIME STEP  132
    SAVE HEAD FOR ALL LAYERS
 SOLVING FOR ZETA FOR LAYER     1 ZONE     2

     731 UPPER PART EQS.       735 LOWER PART EQS.    BAND WIDTH + 1 =   27
 STRESS PERIOD=  3 TIMESTEP=132 LAYER=  1 ZONE=  2 ACTIVE CELLS= 1466 NUMBER OF EQUATIONS=    1466
 SOLVING FOR ZETA FOR LAYER     2 ZONE     2

     635 UPPER PART EQS.       636 LOWER PART EQS.    BAND WIDTH + 1 =   31
 STRESS PERIOD=  3 TIMESTEP=132 LAYER=  2 ZONE=  2 ACTIVE CELLS= 1271 NUMBER OF EQUATIONS=    1271
 UBUDSV SAVING "      ZETASRF  1" ON UNIT 55 AT TIME STEP132, STRESS PERIOD    3

 HEAD WILL BE SAVED ON UNIT   51 AT END OF TIME STEP  132, STRESS PERIOD    3
 
 SOLVING FOR HEAD 
                                                   Max.-Head-Change                         Max.-Flux-Residual
  Residual-Control   Outer-Iter.   Inner-Iter.     Column Row Layer    Maximum-Head-Change  Column Row Layer    Maximum-Flux-Residual          L2-NORM 
          0                 1           1            36   31     2      -0.4103021743E-03      36   31    2        -0.2388498783E+00      0.8542898918E+00
          0                 2           1            34   32     2      -0.2134561136E-04      34   15    1         0.5153122167E-02      0.3271353439E-01
          0                 3           1            37   31     2      -0.2042701951E-04      37   31    2        -0.1243089680E-02      0.1272158382E-01
          0                 4           1            39   29     2      -0.1166604178E-04      39   29    2        -0.8064546890E-03      0.8895782765E-02
          0                 5           1            37   31     2      -0.1246042188E-04      37   31    2        -0.6668044301E-03      0.7389471868E-02
          0                 6           1            34   32     2      -0.8385147811E-05      39   29    2        -0.5177665085E-03      0.6396210143E-02

    ------------------------------------------------
       NWT REQUIRED            6 OUTER ITERATIONS 
       AND A TOTAL OF          6 INNER ITERATIONS.
    ------------------------------------------------

 OUTPUT CONTROL FOR STRESS PERIOD    3   TIME STEP  133
    SAVE HEAD FOR ALL LAYERS
 SOLVING FOR ZETA FOR LAYER     1 ZONE     2

     725 UPPER PART EQS.       738 LOWER PART EQS.    BAND WIDTH + 1 =   34
 STRESS PERIOD=  3 TIMESTEP=133 LAYER=  1 ZONE=  2 ACTIVE CELLS= 1463 NUMBER OF EQUATIONS=    1463
 SOLVING FOR ZETA FOR LAYER     2 ZONE     2

     635 UPPER PART EQS.       636 LOWER PART EQS.    BAND WIDTH + 1 =   31
 STRESS PERIOD=  3 TIMESTEP=133 LAYER=  2 ZONE=  2 ACTIVE CELLS= 1271 NUMBER OF EQUATIONS=    1271
 UBUDSV SAVING "      ZETASRF  1" ON UNIT 55 AT TIME STEP133, STRESS PERIOD    3

 HEAD WILL BE SAVED ON UNIT   51 AT END OF TIME STEP  133, STRESS PERIOD    3
 
 SOLVING FOR HEAD 
                                                   Max.-Head-Change                         Max.-Flux-Residual
  Residual-Control   Outer-Iter.   Inner-Iter.     Column Row Layer    Maximum-Head-Change  Column Row Layer    Maximum-Flux-Residual          L2-NORM 
          0                 1           1            36   31     2      -0.4139204591E-03      36   31    2        -0.2422010899E+00      0.8007393551E+00
          0                 2           1            34   32     2      -0.1989941008E-04      34   15    1        -0.4647394468E-02      0.2703232757E-01
          0                 3           1            37   31     2      -0.1861055333E-04      37   31    2        -0.1170999048E-02      0.9185277984E-02
          0                 4           1            34   32     2      -0.8755826427E-05      39   29    2        -0.6428978335E-03      0.6026924683E-02

    ------------------------------------------------
       NWT REQUIRED            4 OUTER ITERATIONS 
       AND A TOTAL OF          4 INNER ITERATIONS.
    ------------------------------------------------

 OUTPUT CONTROL FOR STRESS PERIOD    3   TIME STEP  134
    SAVE HEAD FOR ALL LAYERS
 SOLVING FOR ZETA FOR LAYER     1 ZONE     2

     725 UPPER PART EQS.       742 LOWER PART EQS.    BAND WIDTH + 1 =   38
 STRESS PERIOD=  3 TIMESTEP=134 LAYER=  1 ZONE=  2 ACTIVE CELLS= 1467 NUMBER OF EQUATIONS=    1467
 SOLVING FOR ZETA FOR LAYER     2 ZONE     2

     635 UPPER PART EQS.       636 LOWER PART EQS.    BAND WIDTH + 1 =   31
 STRESS PERIOD=  3 TIMESTEP=134 LAYER=  2 ZONE=  2 ACTIVE CELLS= 1271 NUMBER OF EQUATIONS=    1271
 UBUDSV SAVING "      ZETASRF  1" ON UNIT 55 AT TIME STEP134, STRESS PERIOD    3

 HEAD WILL BE SAVED ON UNIT   51 AT END OF TIME STEP  134, STRESS PERIOD    3
 
 SOLVING FOR HEAD 
                                                   Max.-Head-Change                         Max.-Flux-Residual
  Residual-Control   Outer-Iter.   Inner-Iter.     Column Row Layer    Maximum-Head-Change  Column Row Layer    Maximum-Flux-Residual          L2-NORM 
          0                 1           1            36   31     2      -0.4188993349E-03      38   15    1        -0.2566080128E+00      0.8996356674E+00
          0                 2           1            34   32     2      -0.2186394368E-04      35   48    1        -0.5069221497E-02      0.2838576720E-01
          0                 3           1            37   31     2      -0.2003683408E-04      37   31    2        -0.1250311582E-02      0.1204939095E-01
          0                 4           1            34   32     2      -0.1133574291E-04      39   29    2        -0.8523007616E-03      0.8539305981E-02
          0                 5           1            37   31     2      -0.1265280893E-04      37   31    2        -0.6771517880E-03      0.7101392382E-02
          0                 6           1            34   32     2      -0.8135590672E-05      39   29    2        -0.5367188686E-03      0.6186557032E-02

    ------------------------------------------------
       NWT REQUIRED            6 OUTER ITERATIONS 
       AND A TOTAL OF          6 INNER ITERATIONS.
    ------------------------------------------------

 OUTPUT CONTROL FOR STRESS PERIOD    3   TIME STEP  135
    SAVE HEAD FOR ALL LAYERS
 SOLVING FOR ZETA FOR LAYER     1 ZONE     2

     725 UPPER PART EQS.       735 LOWER PART EQS.    BAND WIDTH + 1 =   31
 STRESS PERIOD=  3 TIMESTEP=135 LAYER=  1 ZONE=  2 ACTIVE CELLS= 1460 NUMBER OF EQUATIONS=    1460
 SOLVING FOR ZETA FOR LAYER     2 ZONE     2

     635 UPPER PART EQS.       636 LOWER PART EQS.    BAND WIDTH + 1 =   31
 STRESS PERIOD=  3 TIMESTEP=135 LAYER=  2 ZONE=  2 ACTIVE CELLS= 1271 NUMBER OF EQUATIONS=    1271
 UBUDSV SAVING "      ZETASRF  1" ON UNIT 55 AT TIME STEP135, STRESS PERIOD    3

 HEAD WILL BE SAVED ON UNIT   51 AT END OF TIME STEP  135, STRESS PERIOD    3
 
 SOLVING FOR HEAD 
                                                   Max.-Head-Change                         Max.-Flux-Residual
  Residual-Control   Outer-Iter.   Inner-Iter.     Column Row Layer    Maximum-Head-Change  Column Row Layer    Maximum-Flux-Residual          L2-NORM 
          0                 1           1            36   31     2      -0.4227464000E-03      36   31    2        -0.2490047216E+00      0.7926841965E+00
          0                 2           1            34   32     2      -0.1979744365E-04      35   48    1         0.4444170783E-02      0.2478122184E-01
          0                 3           1            37   31     2      -0.2046095413E-04      37   31    2        -0.1170043480E-02      0.8808235530E-02
          0                 4           1            39   29     2      -0.7672303205E-05      39   29    2        -0.6328290646E-03      0.5623517878E-02

    ------------------------------------------------
       NWT REQUIRED            4 OUTER ITERATIONS 
       AND A TOTAL OF          4 INNER ITERATIONS.
    ------------------------------------------------

 OUTPUT CONTROL FOR STRESS PERIOD    3   TIME STEP  136
    SAVE HEAD FOR ALL LAYERS
 SOLVING FOR ZETA FOR LAYER     1 ZONE     2

     731 UPPER PART EQS.       741 LOWER PART EQS.    BAND WIDTH + 1 =   31
 STRESS PERIOD=  3 TIMESTEP=136 LAYER=  1 ZONE=  2 ACTIVE CELLS= 1472 NUMBER OF EQUATIONS=    1472
 SOLVING FOR ZETA FOR LAYER     2 ZONE     2

     635 UPPER PART EQS.       636 LOWER PART EQS.    BAND WIDTH + 1 =   31
 STRESS PERIOD=  3 TIMESTEP=136 LAYER=  2 ZONE=  2 ACTIVE CELLS= 1271 NUMBER OF EQUATIONS=    1271
 UBUDSV SAVING "      ZETASRF  1" ON UNIT 55 AT TIME STEP136, STRESS PERIOD    3

 HEAD WILL BE SAVED ON UNIT   51 AT END OF TIME STEP  136, STRESS PERIOD    3
 
 SOLVING FOR HEAD 
                                                   Max.-Head-Change                         Max.-Flux-Residual
  Residual-Control   Outer-Iter.   Inner-Iter.     Column Row Layer    Maximum-Head-Change  Column Row Layer    Maximum-Flux-Residual          L2-NORM 
          0                 1           1            36   31     2      -0.4274327372E-03      36   31    2        -0.2525397539E+00      0.5432247179E+00
          0                 2           1            34   32     2      -0.2183188625E-04      33   48    1        -0.4189461805E-02      0.2390789070E-01
          0                 3           1            37   31     2      -0.1924893727E-04      37   31    2        -0.1211916510E-02      0.1081825764E-01
          0                 4           1            34   32     2      -0.1036639317E-04      39   29    2        -0.8581445632E-03      0.7529927563E-02
          0                 5           1            37   31     2      -0.1113556465E-04      37   31    2        -0.6333156701E-03      0.6127607018E-02
          0                 6           1            34   32     2      -0.7249634399E-05      39   29    2        -0.4963337959E-03      0.5253345847E-02

    ------------------------------------------------
       NWT REQUIRED            6 OUTER ITERATIONS 
       AND A TOTAL OF          6 INNER ITERATIONS.
    ------------------------------------------------

 OUTPUT CONTROL FOR STRESS PERIOD    3   TIME STEP  137
    SAVE HEAD FOR ALL LAYERS
 SOLVING FOR ZETA FOR LAYER     1 ZONE     2

     729 UPPER PART EQS.       738 LOWER PART EQS.    BAND WIDTH + 1 =   30
 STRESS PERIOD=  3 TIMESTEP=137 LAYER=  1 ZONE=  2 ACTIVE CELLS= 1467 NUMBER OF EQUATIONS=    1467
 SOLVING FOR ZETA FOR LAYER     2 ZONE     2

     635 UPPER PART EQS.       636 LOWER PART EQS.    BAND WIDTH + 1 =   31
 STRESS PERIOD=  3 TIMESTEP=137 LAYER=  2 ZONE=  2 ACTIVE CELLS= 1271 NUMBER OF EQUATIONS=    1271
 UBUDSV SAVING "      ZETASRF  1" ON UNIT 55 AT TIME STEP137, STRESS PERIOD    3

 HEAD WILL BE SAVED ON UNIT   51 AT END OF TIME STEP  137, STRESS PERIOD    3
 
 SOLVING FOR HEAD 
                                                   Max.-Head-Change                         Max.-Flux-Residual
  Residual-Control   Outer-Iter.   Inner-Iter.     Column Row Layer    Maximum-Head-Change  Column Row Layer    Maximum-Flux-Residual          L2-NORM 
          0                 1           1            36   31     2      -0.4317615581E-03      36   31    2        -0.2560756207E+00      0.7485574060E+00
          0                 2           1            34   32     2      -0.2036319702E-04      34   32    2        -0.3446277230E-02      0.2382093380E-01
          0                 3           1            37   31     2      -0.1902275648E-04      37   31    2        -0.1179590967E-02      0.9973762045E-02
          0                 4           1            34   32     2      -0.9351446814E-05      39   29    2        -0.7272205885E-03      0.6993665413E-02

    ------------------------------------------------
       NWT REQUIRED            4 OUTER ITERATIONS 
       AND A TOTAL OF          4 INNER ITERATIONS.
    ------------------------------------------------

 OUTPUT CONTROL FOR STRESS PERIOD    3   TIME STEP  138
    SAVE HEAD FOR ALL LAYERS
 SOLVING FOR ZETA FOR LAYER     1 ZONE     2

     723 UPPER PART EQS.       742 LOWER PART EQS.    BAND WIDTH + 1 =   40
 STRESS PERIOD=  3 TIMESTEP=138 LAYER=  1 ZONE=  2 ACTIVE CELLS= 1465 NUMBER OF EQUATIONS=    1465
 SOLVING FOR ZETA FOR LAYER     2 ZONE     2

     635 UPPER PART EQS.       636 LOWER PART EQS.    BAND WIDTH + 1 =   31
 STRESS PERIOD=  3 TIMESTEP=138 LAYER=  2 ZONE=  2 ACTIVE CELLS= 1271 NUMBER OF EQUATIONS=    1271
 UBUDSV SAVING "      ZETASRF  1" ON UNIT 55 AT TIME STEP138, STRESS PERIOD    3

 HEAD WILL BE SAVED ON UNIT   51 AT END OF TIME STEP  138, STRESS PERIOD    3
 
 SOLVING FOR HEAD 
                                                   Max.-Head-Change                         Max.-Flux-Residual
  Residual-Control   Outer-Iter.   Inner-Iter.     Column Row Layer    Maximum-Head-Change  Column Row Layer    Maximum-Flux-Residual          L2-NORM 
          0                 1           1            36   31     2      -0.4375436001E-03      36   31    2        -0.2597347498E+00      0.7724326773E+00
          0                 2           1            34   32     2      -0.2144851103E-04      11   40    1         0.3512236922E-02      0.2634685066E-01
          0                 3           1            37   31     2      -0.2197623912E-04      37   31    2        -0.1251275098E-02      0.1092521677E-01
          0                 4           1            39   29     2      -0.1007292744E-04      39   29    2        -0.7817376049E-03      0.7696200401E-02
          0                 5           1            37   31     2      -0.1193781933E-04      37   31    2        -0.6150466984E-03      0.6327049911E-02
          0                 6           1            34   32     2      -0.6921607473E-05      39   29    2        -0.4701107110E-03      0.5496586102E-02

    ------------------------------------------------
       NWT REQUIRED            6 OUTER ITERATIONS 
       AND A TOTAL OF          6 INNER ITERATIONS.
    ------------------------------------------------

 OUTPUT CONTROL FOR STRESS PERIOD    3   TIME STEP  139
    SAVE HEAD FOR ALL LAYERS
 SOLVING FOR ZETA FOR LAYER     1 ZONE     2

     727 UPPER PART EQS.       735 LOWER PART EQS.    BAND WIDTH + 1 =   30
 STRESS PERIOD=  3 TIMESTEP=139 LAYER=  1 ZONE=  2 ACTIVE CELLS= 1462 NUMBER OF EQUATIONS=    1462
 SOLVING FOR ZETA FOR LAYER     2 ZONE     2

     635 UPPER PART EQS.       636 LOWER PART EQS.    BAND WIDTH + 1 =   31
 STRESS PERIOD=  3 TIMESTEP=139 LAYER=  2 ZONE=  2 ACTIVE CELLS= 1271 NUMBER OF EQUATIONS=    1271
 UBUDSV SAVING "      ZETASRF  1" ON UNIT 55 AT TIME STEP139, STRESS PERIOD    3

 HEAD WILL BE SAVED ON UNIT   51 AT END OF TIME STEP  139, STRESS PERIOD    3
 
 SOLVING FOR HEAD 
                                                   Max.-Head-Change                         Max.-Flux-Residual
  Residual-Control   Outer-Iter.   Inner-Iter.     Column Row Layer    Maximum-Head-Change  Column Row Layer    Maximum-Flux-Residual          L2-NORM 
          0                 1           1            36   31     2      -0.4408323627E-03      36   31    2        -0.2634501457E+00      0.7194599704E+00
          0                 2           1            34   32     2      -0.2049176046E-04      20   15    1         0.4044240740E-02      0.2473093488E-01
          0                 3           1            37   31     2      -0.1761713963E-04      37   31    2        -0.1145358423E-02      0.9331206442E-02
          0                 4           1            34   32     2      -0.9115058421E-05      39   29    2        -0.6863541973E-03      0.6348268527E-02

    ------------------------------------------------
       NWT REQUIRED            4 OUTER ITERATIONS 
       AND A TOTAL OF          4 INNER ITERATIONS.
    ------------------------------------------------

 OUTPUT CONTROL FOR STRESS PERIOD    3   TIME STEP  140
    SAVE HEAD FOR ALL LAYERS
 SOLVING FOR ZETA FOR LAYER     1 ZONE     2

     727 UPPER PART EQS.       741 LOWER PART EQS.    BAND WIDTH + 1 =   35
 STRESS PERIOD=  3 TIMESTEP=140 LAYER=  1 ZONE=  2 ACTIVE CELLS= 1468 NUMBER OF EQUATIONS=    1468
 SOLVING FOR ZETA FOR LAYER     2 ZONE     2

     635 UPPER PART EQS.       636 LOWER PART EQS.    BAND WIDTH + 1 =   31
 STRESS PERIOD=  3 TIMESTEP=140 LAYER=  2 ZONE=  2 ACTIVE CELLS= 1271 NUMBER OF EQUATIONS=    1271
 UBUDSV SAVING "      ZETASRF  1" ON UNIT 55 AT TIME STEP140, STRESS PERIOD    3

 HEAD WILL BE SAVED ON UNIT   51 AT END OF TIME STEP  140, STRESS PERIOD    3
 
 SOLVING FOR HEAD 
                                                   Max.-Head-Change                         Max.-Flux-Residual
  Residual-Control   Outer-Iter.   Inner-Iter.     Column Row Layer    Maximum-Head-Change  Column Row Layer    Maximum-Flux-Residual          L2-NORM 
          0                 1           1            36   31     2      -0.4467283343E-03      15   40    1        -0.2830113279E+00      0.8675215249E+00
          0                 2           1            34   32     2      -0.2141579883E-04      18   39    1        -0.5393843094E-02      0.2944363778E-01
          0                 3           1            37   31     2      -0.1962820705E-04      37   31    2        -0.1220408287E-02      0.1110798724E-01
          0                 4           1            39   29     2      -0.1062373425E-04      39   29    2        -0.7626237008E-03      0.7631549340E-02
          0                 5           1            37   31     2      -0.1089050626E-04      37   31    2        -0.6080641189E-03      0.6269413631E-02
          0                 6           1            34   32     2      -0.7608725219E-05      39   29    2        -0.4550401107E-03      0.5432832015E-02

    ------------------------------------------------
       NWT REQUIRED            6 OUTER ITERATIONS 
       AND A TOTAL OF          6 INNER ITERATIONS.
    ------------------------------------------------

 OUTPUT CONTROL FOR STRESS PERIOD    3   TIME STEP  141
    SAVE HEAD FOR ALL LAYERS
 SOLVING FOR ZETA FOR LAYER     1 ZONE     2

     733 UPPER PART EQS.       738 LOWER PART EQS.    BAND WIDTH + 1 =   27
 STRESS PERIOD=  3 TIMESTEP=141 LAYER=  1 ZONE=  2 ACTIVE CELLS= 1471 NUMBER OF EQUATIONS=    1471
 SOLVING FOR ZETA FOR LAYER     2 ZONE     2

     635 UPPER PART EQS.       636 LOWER PART EQS.    BAND WIDTH + 1 =   31
 STRESS PERIOD=  3 TIMESTEP=141 LAYER=  2 ZONE=  2 ACTIVE CELLS= 1271 NUMBER OF EQUATIONS=    1271
 UBUDSV SAVING "      ZETASRF  1" ON UNIT 55 AT TIME STEP141, STRESS PERIOD    3

 HEAD WILL BE SAVED ON UNIT   51 AT END OF TIME STEP  141, STRESS PERIOD    3
 
 SOLVING FOR HEAD 
                                                   Max.-Head-Change                         Max.-Flux-Residual
  Residual-Control   Outer-Iter.   Inner-Iter.     Column Row Layer    Maximum-Head-Change  Column Row Layer    Maximum-Flux-Residual          L2-NORM 
          0                 1           1            36   31     2      -0.4507338568E-03      15   22    1         0.2725944593E+00      0.8247869881E+00
          0                 2           1            34   32     2      -0.1996284675E-04      18   39    1         0.4904238131E-02      0.2794801953E-01
          0                 3           1            37   31     2      -0.1906689935E-04      37   31    2        -0.1169611585E-02      0.9975637742E-02
          0                 4           1            34   32     2      -0.9233509672E-05      39   29    2        -0.6733204606E-03      0.6713718778E-02

    ------------------------------------------------
       NWT REQUIRED            4 OUTER ITERATIONS 
       AND A TOTAL OF          4 INNER ITERATIONS.
    ------------------------------------------------

 OUTPUT CONTROL FOR STRESS PERIOD    3   TIME STEP  142
    SAVE HEAD FOR ALL LAYERS
 SOLVING FOR ZETA FOR LAYER     1 ZONE     2

     723 UPPER PART EQS.       742 LOWER PART EQS.    BAND WIDTH + 1 =   40
 STRESS PERIOD=  3 TIMESTEP=142 LAYER=  1 ZONE=  2 ACTIVE CELLS= 1465 NUMBER OF EQUATIONS=    1465
 SOLVING FOR ZETA FOR LAYER     2 ZONE     2

     635 UPPER PART EQS.       636 LOWER PART EQS.    BAND WIDTH + 1 =   31
 STRESS PERIOD=  3 TIMESTEP=142 LAYER=  2 ZONE=  2 ACTIVE CELLS= 1271 NUMBER OF EQUATIONS=    1271
 UBUDSV SAVING "      ZETASRF  1" ON UNIT 55 AT TIME STEP142, STRESS PERIOD    3

 HEAD WILL BE SAVED ON UNIT   51 AT END OF TIME STEP  142, STRESS PERIOD    3
 
 SOLVING FOR HEAD 
                                                   Max.-Head-Change                         Max.-Flux-Residual
  Residual-Control   Outer-Iter.   Inner-Iter.     Column Row Layer    Maximum-Head-Change  Column Row Layer    Maximum-Flux-Residual          L2-NORM 
          0                 1           1            36   31     2      -0.4571805094E-03      36   31    2        -0.2750519514E+00      0.7885444927E+00
          0                 2           1            34   32     2      -0.2260303390E-04      11   40    1         0.3751648623E-02      0.2803541555E-01
          0                 3           1            37   31     2      -0.2025658600E-04      37   31    2        -0.1272071532E-02      0.1194550327E-01
          0                 4           1            34   32     2      -0.1195092611E-04      39   29    2        -0.8590307619E-03      0.8620711368E-02
          0                 5           1            37   31     2      -0.1212778242E-04      37   31    2        -0.6916873703E-03      0.7201047380E-02
          0                 6           1            34   32     2      -0.8804998109E-05      39   29    2        -0.5363472287E-03      0.6291528821E-02

    ------------------------------------------------
       NWT REQUIRED            6 OUTER ITERATIONS 
       AND A TOTAL OF          6 INNER ITERATIONS.
    ------------------------------------------------

 OUTPUT CONTROL FOR STRESS PERIOD    3   TIME STEP  143
    SAVE HEAD FOR ALL LAYERS
 SOLVING FOR ZETA FOR LAYER     1 ZONE     2

     723 UPPER PART EQS.       733 LOWER PART EQS.    BAND WIDTH + 1 =   31
 STRESS PERIOD=  3 TIMESTEP=143 LAYER=  1 ZONE=  2 ACTIVE CELLS= 1456 NUMBER OF EQUATIONS=    1456
 SOLVING FOR ZETA FOR LAYER     2 ZONE     2

     635 UPPER PART EQS.       636 LOWER PART EQS.    BAND WIDTH + 1 =   31
 STRESS PERIOD=  3 TIMESTEP=143 LAYER=  2 ZONE=  2 ACTIVE CELLS= 1271 NUMBER OF EQUATIONS=    1271
 UBUDSV SAVING "      ZETASRF  1" ON UNIT 55 AT TIME STEP143, STRESS PERIOD    3

 HEAD WILL BE SAVED ON UNIT   51 AT END OF TIME STEP  143, STRESS PERIOD    3
 
 SOLVING FOR HEAD 
                                                   Max.-Head-Change                         Max.-Flux-Residual
  Residual-Control   Outer-Iter.   Inner-Iter.     Column Row Layer    Maximum-Head-Change  Column Row Layer    Maximum-Flux-Residual          L2-NORM 
          0                 1           1            36   31     2      -0.4612527829E-03      36   31    2        -0.2790778875E+00      0.6739225246E+00
          0                 2           1            34   32     2      -0.2042922743E-04      34   32    2        -0.3496521493E-02      0.2277218537E-01
          0                 3           1            37   31     2      -0.2019882004E-04      37   31    2        -0.1174230933E-02      0.8564181041E-02
          0                 4           1            39   29     2      -0.7815783591E-05      39   29    2        -0.6583048781E-03      0.5603854038E-02

    ------------------------------------------------
       NWT REQUIRED            4 OUTER ITERATIONS 
       AND A TOTAL OF          4 INNER ITERATIONS.
    ------------------------------------------------

 OUTPUT CONTROL FOR STRESS PERIOD    3   TIME STEP  144
    SAVE HEAD FOR ALL LAYERS
 SOLVING FOR ZETA FOR LAYER     1 ZONE     2

     732 UPPER PART EQS.       743 LOWER PART EQS.    BAND WIDTH + 1 =   32
 STRESS PERIOD=  3 TIMESTEP=144 LAYER=  1 ZONE=  2 ACTIVE CELLS= 1475 NUMBER OF EQUATIONS=    1475
 SOLVING FOR ZETA FOR LAYER     2 ZONE     2

     635 UPPER PART EQS.       636 LOWER PART EQS.    BAND WIDTH + 1 =   31
 STRESS PERIOD=  3 TIMESTEP=144 LAYER=  2 ZONE=  2 ACTIVE CELLS= 1271 NUMBER OF EQUATIONS=    1271
 UBUDSV SAVING "      ZETASRF  1" ON UNIT 55 AT TIME STEP144, STRESS PERIOD    3

 HEAD WILL BE SAVED ON UNIT   51 AT END OF TIME STEP  144, STRESS PERIOD    3
 
 SOLVING FOR HEAD 
                                                   Max.-Head-Change                         Max.-Flux-Residual
  Residual-Control   Outer-Iter.   Inner-Iter.     Column Row Layer    Maximum-Head-Change  Column Row Layer    Maximum-Flux-Residual          L2-NORM 
          0                 1           1            36   31     2      -0.4667248654E-03      36   31    2        -0.2832292318E+00      0.6880809030E+00
          0                 2           1            34   32     2      -0.2172539662E-04      33   48    1        -0.4352772595E-02      0.2654079101E-01
          0                 3           1            37   31     2      -0.1928421531E-04      37   31    2        -0.1226179312E-02      0.1131799011E-01
          0                 4           1            39   29     2      -0.1037597556E-04      39   29    2        -0.8271998331E-03      0.7821501799E-02
          0                 5           1            37   31     2      -0.1165560702E-04      37   31    2        -0.6309676773E-03      0.6388089421E-02
          0                 6           1            34   32     2      -0.7261730817E-05      39   29    2        -0.4955505366E-03      0.5482214008E-02

    ------------------------------------------------
       NWT REQUIRED            6 OUTER ITERATIONS 
       AND A TOTAL OF          6 INNER ITERATIONS.
    ------------------------------------------------

 OUTPUT CONTROL FOR STRESS PERIOD    3   TIME STEP  145
    SAVE HEAD FOR ALL LAYERS
 SOLVING FOR ZETA FOR LAYER     1 ZONE     2

     728 UPPER PART EQS.       742 LOWER PART EQS.    BAND WIDTH + 1 =   35
 STRESS PERIOD=  3 TIMESTEP=145 LAYER=  1 ZONE=  2 ACTIVE CELLS= 1470 NUMBER OF EQUATIONS=    1470
 SOLVING FOR ZETA FOR LAYER     2 ZONE     2

     635 UPPER PART EQS.       636 LOWER PART EQS.    BAND WIDTH + 1 =   31
 STRESS PERIOD=  3 TIMESTEP=145 LAYER=  2 ZONE=  2 ACTIVE CELLS= 1271 NUMBER OF EQUATIONS=    1271
 UBUDSV SAVING "      ZETASRF  1" ON UNIT 55 AT TIME STEP145, STRESS PERIOD    3

 HEAD WILL BE SAVED ON UNIT   51 AT END OF TIME STEP  145, STRESS PERIOD    3
 
 SOLVING FOR HEAD 
                                                   Max.-Head-Change                         Max.-Flux-Residual
  Residual-Control   Outer-Iter.   Inner-Iter.     Column Row Layer    Maximum-Head-Change  Column Row Layer    Maximum-Flux-Residual          L2-NORM 
          0                 1           1            36   31     2      -0.4716116924E-03      36   31    2        -0.2874372005E+00      0.8066823489E+00
          0                 2           1            34   32     2      -0.2039771410E-04      34   32    2        -0.3516296130E-02      0.2581862329E-01
          0                 3           1            37   31     2      -0.1923476524E-04      37   31    2        -0.1188935632E-02      0.9979003623E-02
          0                 4           1            34   32     2      -0.9346942372E-05      39   29    2        -0.6966158564E-03      0.6931448510E-02

    ------------------------------------------------
       NWT REQUIRED            4 OUTER ITERATIONS 
       AND A TOTAL OF          4 INNER ITERATIONS.
    ------------------------------------------------

 OUTPUT CONTROL FOR STRESS PERIOD    3   TIME STEP  146
    SAVE HEAD FOR ALL LAYERS
 SOLVING FOR ZETA FOR LAYER     1 ZONE     2

     726 UPPER PART EQS.       738 LOWER PART EQS.    BAND WIDTH + 1 =   34
 STRESS PERIOD=  3 TIMESTEP=146 LAYER=  1 ZONE=  2 ACTIVE CELLS= 1464 NUMBER OF EQUATIONS=    1464
 SOLVING FOR ZETA FOR LAYER     2 ZONE     2

     635 UPPER PART EQS.       636 LOWER PART EQS.    BAND WIDTH + 1 =   31
 STRESS PERIOD=  3 TIMESTEP=146 LAYER=  2 ZONE=  2 ACTIVE CELLS= 1271 NUMBER OF EQUATIONS=    1271
 UBUDSV SAVING "      ZETASRF  1" ON UNIT 55 AT TIME STEP146, STRESS PERIOD    3

 HEAD WILL BE SAVED ON UNIT   51 AT END OF TIME STEP  146, STRESS PERIOD    3
 
 SOLVING FOR HEAD 
                                                   Max.-Head-Change                         Max.-Flux-Residual
  Residual-Control   Outer-Iter.   Inner-Iter.     Column Row Layer    Maximum-Head-Change  Column Row Layer    Maximum-Flux-Residual          L2-NORM 
          0                 1           1            36   31     2      -0.4782482760E-03      36   31    2        -0.2917376757E+00      0.7237525569E+00
          0                 2           1            34   32     2      -0.2198236752E-04      34   32    2        -0.3591569862E-02      0.2450176233E-01
          0                 3           1            37   31     2      -0.2216430930E-04      37   31    2        -0.1264980708E-02      0.1038004091E-01
          0                 4           1            34   32     2      -0.1010618439E-04      39   29    2        -0.7822749606E-03      0.7366389199E-02
          0                 5           1            37   31     2      -0.1124426496E-04      37   31    2        -0.6223175623E-03      0.6030404988E-02
          0                 6           1            34   32     2      -0.7142522250E-05      39   29    2        -0.4724974419E-03      0.5209491610E-02

    ------------------------------------------------
       NWT REQUIRED            6 OUTER ITERATIONS 
       AND A TOTAL OF          6 INNER ITERATIONS.
    ------------------------------------------------

 OUTPUT CONTROL FOR STRESS PERIOD    3   TIME STEP  147
    SAVE HEAD FOR ALL LAYERS
 SOLVING FOR ZETA FOR LAYER     1 ZONE     2

     728 UPPER PART EQS.       735 LOWER PART EQS.    BAND WIDTH + 1 =   29
 STRESS PERIOD=  3 TIMESTEP=147 LAYER=  1 ZONE=  2 ACTIVE CELLS= 1463 NUMBER OF EQUATIONS=    1463
 SOLVING FOR ZETA FOR LAYER     2 ZONE     2

     635 UPPER PART EQS.       636 LOWER PART EQS.    BAND WIDTH + 1 =   31
 STRESS PERIOD=  3 TIMESTEP=147 LAYER=  2 ZONE=  2 ACTIVE CELLS= 1271 NUMBER OF EQUATIONS=    1271
 UBUDSV SAVING "      ZETASRF  1" ON UNIT 55 AT TIME STEP147, STRESS PERIOD    3

 HEAD WILL BE SAVED ON UNIT   51 AT END OF TIME STEP  147, STRESS PERIOD    3
 
 SOLVING FOR HEAD 
                                                   Max.-Head-Change                         Max.-Flux-Residual
  Residual-Control   Outer-Iter.   Inner-Iter.     Column Row Layer    Maximum-Head-Change  Column Row Layer    Maximum-Flux-Residual          L2-NORM 
          0                 1           1            36   31     2      -0.4819963440E-03      36   31    2        -0.2961336374E+00      0.6777958310E+00
          0                 2           1            34   32     2      -0.2037314731E-04      34   15    1         0.3776833281E-02      0.2217190643E-01
          0                 3           1            37   31     2      -0.2052995228E-04      37   31    2        -0.1159070103E-02      0.9318471259E-02
          0                 4           1            39   29     2      -0.8333665646E-05      39   29    2        -0.7043740803E-03      0.6370241113E-02

    ------------------------------------------------
       NWT REQUIRED            4 OUTER ITERATIONS 
       AND A TOTAL OF          4 INNER ITERATIONS.
    ------------------------------------------------

 OUTPUT CONTROL FOR STRESS PERIOD    3   TIME STEP  148
    SAVE HEAD FOR ALL LAYERS
 SOLVING FOR ZETA FOR LAYER     1 ZONE     2

     731 UPPER PART EQS.       741 LOWER PART EQS.    BAND WIDTH + 1 =   31
 STRESS PERIOD=  3 TIMESTEP=148 LAYER=  1 ZONE=  2 ACTIVE CELLS= 1472 NUMBER OF EQUATIONS=    1472
 SOLVING FOR ZETA FOR LAYER     2 ZONE     2

     635 UPPER PART EQS.       636 LOWER PART EQS.    BAND WIDTH + 1 =   31
 STRESS PERIOD=  3 TIMESTEP=148 LAYER=  2 ZONE=  2 ACTIVE CELLS= 1271 NUMBER OF EQUATIONS=    1271
 UBUDSV SAVING "      ZETASRF  1" ON UNIT 55 AT TIME STEP148, STRESS PERIOD    3

 HEAD WILL BE SAVED ON UNIT   51 AT END OF TIME STEP  148, STRESS PERIOD    3
 
 SOLVING FOR HEAD 
                                                   Max.-Head-Change                         Max.-Flux-Residual
  Residual-Control   Outer-Iter.   Inner-Iter.     Column Row Layer    Maximum-Head-Change  Column Row Layer    Maximum-Flux-Residual          L2-NORM 
          0                 1           1            36   31     2      -0.4889526826E-03      36   31    2        -0.3006564379E+00      0.7897146336E+00
          0                 2           1            34   32     2      -0.2160287485E-04      19   42    1        -0.4018577640E-02      0.2571078642E-01
          0                 3           1            37   31     2      -0.2095257989E-04      37   31    2        -0.1250977204E-02      0.1124777164E-01
          0                 4           1            34   32     2      -0.1044670791E-04      39   29    2        -0.7877970413E-03      0.7958918928E-02
          0                 5           1            37   31     2      -0.1183629141E-04      37   31    2        -0.6308788398E-03      0.6680815421E-02
          0                 6           1            34   32     2      -0.7673933456E-05      33   31    2        -0.4899866538E-03      0.5866718943E-02

    ------------------------------------------------
       NWT REQUIRED            6 OUTER ITERATIONS 
       AND A TOTAL OF          6 INNER ITERATIONS.
    ------------------------------------------------

 OUTPUT CONTROL FOR STRESS PERIOD    3   TIME STEP  149
    SAVE HEAD FOR ALL LAYERS
 SOLVING FOR ZETA FOR LAYER     1 ZONE     2

     722 UPPER PART EQS.       738 LOWER PART EQS.    BAND WIDTH + 1 =   37
 STRESS PERIOD=  3 TIMESTEP=149 LAYER=  1 ZONE=  2 ACTIVE CELLS= 1460 NUMBER OF EQUATIONS=    1460
 SOLVING FOR ZETA FOR LAYER     2 ZONE     2

     635 UPPER PART EQS.       636 LOWER PART EQS.    BAND WIDTH + 1 =   31
 STRESS PERIOD=  3 TIMESTEP=149 LAYER=  2 ZONE=  2 ACTIVE CELLS= 1271 NUMBER OF EQUATIONS=    1271
 UBUDSV SAVING "      ZETASRF  1" ON UNIT 55 AT TIME STEP149, STRESS PERIOD    3

 HEAD WILL BE SAVED ON UNIT   51 AT END OF TIME STEP  149, STRESS PERIOD    3
 
 SOLVING FOR HEAD 
                                                   Max.-Head-Change                         Max.-Flux-Residual
  Residual-Control   Outer-Iter.   Inner-Iter.     Column Row Layer    Maximum-Head-Change  Column Row Layer    Maximum-Flux-Residual          L2-NORM 
          0                 1           1            36   31     2      -0.4936714557E-03      36   31    2        -0.3052544594E+00      0.8777095940E+00
          0                 2           1            34   32     2      -0.2026042202E-04      21   48    1        -0.5104362838E-02      0.3088969026E-01
          0                 3           1            37   31     2      -0.1776040448E-04      37   31    2        -0.1169972012E-02      0.1004405660E-01
          0                 4           1            34   32     2      -0.9499248691E-05      39   29    2        -0.6370978174E-03      0.6625847549E-02

    ------------------------------------------------
       NWT REQUIRED            4 OUTER ITERATIONS 
       AND A TOTAL OF          4 INNER ITERATIONS.
    ------------------------------------------------

 OUTPUT CONTROL FOR STRESS PERIOD    3   TIME STEP  150
    SAVE HEAD FOR ALL LAYERS
 SOLVING FOR ZETA FOR LAYER     1 ZONE     2

     726 UPPER PART EQS.       744 LOWER PART EQS.    BAND WIDTH + 1 =   39
 STRESS PERIOD=  3 TIMESTEP=150 LAYER=  1 ZONE=  2 ACTIVE CELLS= 1470 NUMBER OF EQUATIONS=    1470
 SOLVING FOR ZETA FOR LAYER     2 ZONE     2

     635 UPPER PART EQS.       636 LOWER PART EQS.    BAND WIDTH + 1 =   31
 STRESS PERIOD=  3 TIMESTEP=150 LAYER=  2 ZONE=  2 ACTIVE CELLS= 1271 NUMBER OF EQUATIONS=    1271
 UBUDSV SAVING "      ZETASRF  1" ON UNIT 55 AT TIME STEP150, STRESS PERIOD    3

 HEAD WILL BE SAVED ON UNIT   51 AT END OF TIME STEP  150, STRESS PERIOD    3
 
 SOLVING FOR HEAD 
                                                   Max.-Head-Change                         Max.-Flux-Residual
  Residual-Control   Outer-Iter.   Inner-Iter.     Column Row Layer    Maximum-Head-Change  Column Row Layer    Maximum-Flux-Residual          L2-NORM 
          0                 1           1            36   31     2      -0.5004012042E-03      36   31    2        -0.3099513054E+00      0.7991125291E+00
          0                 2           1            34   32     2      -0.2222595280E-04      21   48    1         0.4685172510E-02      0.3005722767E-01
          0                 3           1            37   31     2      -0.1974509846E-04      37   31    2        -0.1249722030E-02      0.1124120914E-01
          0                 4           1            39   29     2      -0.1081137702E-04      39   29    2        -0.7969416274E-03      0.7638885836E-02
          0                 5           1            37   31     2      -0.1097854060E-04      37   31    2        -0.6250117665E-03      0.6141800152E-02
          0                 6           1            34   32     2      -0.7268644360E-05      39   29    2        -0.4690493452E-03      0.5220011853E-02

    ------------------------------------------------
       NWT REQUIRED            6 OUTER ITERATIONS 
       AND A TOTAL OF          6 INNER ITERATIONS.
    ------------------------------------------------

 OUTPUT CONTROL FOR STRESS PERIOD    3   TIME STEP  151
    SAVE HEAD FOR ALL LAYERS
 SOLVING FOR ZETA FOR LAYER     1 ZONE     2

     730 UPPER PART EQS.       735 LOWER PART EQS.    BAND WIDTH + 1 =   27
 STRESS PERIOD=  3 TIMESTEP=151 LAYER=  1 ZONE=  2 ACTIVE CELLS= 1465 NUMBER OF EQUATIONS=    1465
 SOLVING FOR ZETA FOR LAYER     2 ZONE     2

     635 UPPER PART EQS.       636 LOWER PART EQS.    BAND WIDTH + 1 =   31
 STRESS PERIOD=  3 TIMESTEP=151 LAYER=  2 ZONE=  2 ACTIVE CELLS= 1271 NUMBER OF EQUATIONS=    1271
 UBUDSV SAVING "      ZETASRF  1" ON UNIT 55 AT TIME STEP151, STRESS PERIOD    3

 HEAD WILL BE SAVED ON UNIT   51 AT END OF TIME STEP  151, STRESS PERIOD    3
 
 SOLVING FOR HEAD 
                                                   Max.-Head-Change                         Max.-Flux-Residual
  Residual-Control   Outer-Iter.   Inner-Iter.     Column Row Layer    Maximum-Head-Change  Column Row Layer    Maximum-Flux-Residual          L2-NORM 
          0                 1           1            36   31     2      -0.5051876701E-03      36   31    2        -0.3147735596E+00      0.6035532654E+00
          0                 2           1            34   32     2      -0.2085625944E-04      34   32    2        -0.3542732821E-02      0.2047082803E-01
          0                 3           1            37   31     2      -0.1976876939E-04      37   31    2        -0.1181399758E-02      0.8801979270E-02
          0                 4           1            34   32     2      -0.8446644201E-05      39   29    2        -0.7370265834E-03      0.5974911780E-02

    ------------------------------------------------
       NWT REQUIRED            4 OUTER ITERATIONS 
       AND A TOTAL OF          4 INNER ITERATIONS.
    ------------------------------------------------

 OUTPUT CONTROL FOR STRESS PERIOD    3   TIME STEP  152
    SAVE HEAD FOR ALL LAYERS
 SOLVING FOR ZETA FOR LAYER     1 ZONE     2

     732 UPPER PART EQS.       739 LOWER PART EQS.    BAND WIDTH + 1 =   28
 STRESS PERIOD=  3 TIMESTEP=152 LAYER=  1 ZONE=  2 ACTIVE CELLS= 1471 NUMBER OF EQUATIONS=    1471
 SOLVING FOR ZETA FOR LAYER     2 ZONE     2

     635 UPPER PART EQS.       636 LOWER PART EQS.    BAND WIDTH + 1 =   31
 STRESS PERIOD=  3 TIMESTEP=152 LAYER=  2 ZONE=  2 ACTIVE CELLS= 1271 NUMBER OF EQUATIONS=    1271
 UBUDSV SAVING "      ZETASRF  1" ON UNIT 55 AT TIME STEP152, STRESS PERIOD    3

 HEAD WILL BE SAVED ON UNIT   51 AT END OF TIME STEP  152, STRESS PERIOD    3
 
 SOLVING FOR HEAD 
                                                   Max.-Head-Change                         Max.-Flux-Residual
  Residual-Control   Outer-Iter.   Inner-Iter.     Column Row Layer    Maximum-Head-Change  Column Row Layer    Maximum-Flux-Residual          L2-NORM 
          0                 1           1            36   31     2      -0.5122561914E-03      36   31    2        -0.3197486401E+00      0.6448440151E+00
          0                 2           1            34   32     2      -0.2274013817E-04      33   48    1        -0.4119523349E-02      0.2435391800E-01
          0                 3           1            37   31     2      -0.2000594239E-04      37   31    2        -0.1251584082E-02      0.1113194921E-01
          0                 4           1            34   32     2      -0.1096570196E-04      39   29    2        -0.8793560809E-03      0.7901324009E-02
          0                 5           1            37   31     2      -0.1158506599E-04      37   31    2        -0.6685727774E-03      0.6495796804E-02
          0                 6           1            34   32     2      -0.7731662467E-05      39   29    2        -0.5265606045E-03      0.5599647991E-02

    ------------------------------------------------
       NWT REQUIRED            6 OUTER ITERATIONS 
       AND A TOTAL OF          6 INNER ITERATIONS.
    ------------------------------------------------

 OUTPUT CONTROL FOR STRESS PERIOD    3   TIME STEP  153
    SAVE HEAD FOR ALL LAYERS
 SOLVING FOR ZETA FOR LAYER     1 ZONE     2

     727 UPPER PART EQS.       740 LOWER PART EQS.    BAND WIDTH + 1 =   35
 STRESS PERIOD=  3 TIMESTEP=153 LAYER=  1 ZONE=  2 ACTIVE CELLS= 1467 NUMBER OF EQUATIONS=    1467
 SOLVING FOR ZETA FOR LAYER     2 ZONE     2

     635 UPPER PART EQS.       636 LOWER PART EQS.    BAND WIDTH + 1 =   31
 STRESS PERIOD=  3 TIMESTEP=153 LAYER=  2 ZONE=  2 ACTIVE CELLS= 1271 NUMBER OF EQUATIONS=    1271
 UBUDSV SAVING "      ZETASRF  1" ON UNIT 55 AT TIME STEP153, STRESS PERIOD    3

 HEAD WILL BE SAVED ON UNIT   51 AT END OF TIME STEP  153, STRESS PERIOD    3
 
 SOLVING FOR HEAD 
                                                   Max.-Head-Change                         Max.-Flux-Residual
  Residual-Control   Outer-Iter.   Inner-Iter.     Column Row Layer    Maximum-Head-Change  Column Row Layer    Maximum-Flux-Residual          L2-NORM 
          0                 1           1            36   31     2      -0.5175790246E-03      36   31    2        -0.3247115612E+00      0.9985913031E+00
          0                 2           1            34   32     2      -0.2015858027E-04      18   39    1        -0.5073902959E-02      0.2866257993E-01
          0                 3           1            37   31     2      -0.1973508911E-04      37   31    2        -0.1175901571E-02      0.1061834584E-01
          0                 4           1            34   32     2      -0.9090296964E-05      39   29    2        -0.6339832865E-03      0.7432650126E-02

    ------------------------------------------------
       NWT REQUIRED            4 OUTER ITERATIONS 
       AND A TOTAL OF          4 INNER ITERATIONS.
    ------------------------------------------------

 OUTPUT CONTROL FOR STRESS PERIOD    3   TIME STEP  154
    SAVE HEAD FOR ALL LAYERS
 SOLVING FOR ZETA FOR LAYER     1 ZONE     2

     728 UPPER PART EQS.       744 LOWER PART EQS.    BAND WIDTH + 1 =   37
 STRESS PERIOD=  3 TIMESTEP=154 LAYER=  1 ZONE=  2 ACTIVE CELLS= 1472 NUMBER OF EQUATIONS=    1472
 SOLVING FOR ZETA FOR LAYER     2 ZONE     2

     635 UPPER PART EQS.       636 LOWER PART EQS.    BAND WIDTH + 1 =   31
 STRESS PERIOD=  3 TIMESTEP=154 LAYER=  2 ZONE=  2 ACTIVE CELLS= 1271 NUMBER OF EQUATIONS=    1271
 UBUDSV SAVING "      ZETASRF  1" ON UNIT 55 AT TIME STEP154, STRESS PERIOD    3

 HEAD WILL BE SAVED ON UNIT   51 AT END OF TIME STEP  154, STRESS PERIOD    3
 
 SOLVING FOR HEAD 
                                                   Max.-Head-Change                         Max.-Flux-Residual
  Residual-Control   Outer-Iter.   Inner-Iter.     Column Row Layer    Maximum-Head-Change  Column Row Layer    Maximum-Flux-Residual          L2-NORM 
          0                 1           1            36   31     2      -0.5253920717E-03      36   31    2        -0.3299481869E+00      0.1184682879E+01
          0                 2           1            34   32     2      -0.2216299977E-04      35   16    1        -0.4782569218E-02      0.2797799724E-01
          0                 3           1            37   31     2      -0.2386896835E-04      37   31    2        -0.1291682863E-02      0.1204493995E-01
          0                 4           1            34   32     2      -0.1148901668E-04      39   29    2        -0.8027029069E-03      0.8826651351E-02
          0                 5           1            37   31     2      -0.1316521947E-04      37   31    2        -0.6932083382E-03      0.7475912154E-02
          0                 6           1            34   32     2      -0.8549519519E-05      33   31    2        -0.5424348730E-03      0.6580233817E-02

    ------------------------------------------------
       NWT REQUIRED            6 OUTER ITERATIONS 
       AND A TOTAL OF          6 INNER ITERATIONS.
    ------------------------------------------------

 OUTPUT CONTROL FOR STRESS PERIOD    3   TIME STEP  155
    SAVE HEAD FOR ALL LAYERS
 SOLVING FOR ZETA FOR LAYER     1 ZONE     2

     728 UPPER PART EQS.       735 LOWER PART EQS.    BAND WIDTH + 1 =   30
 STRESS PERIOD=  3 TIMESTEP=155 LAYER=  1 ZONE=  2 ACTIVE CELLS= 1463 NUMBER OF EQUATIONS=    1463
 SOLVING FOR ZETA FOR LAYER     2 ZONE     2

     635 UPPER PART EQS.       636 LOWER PART EQS.    BAND WIDTH + 1 =   31
 STRESS PERIOD=  3 TIMESTEP=155 LAYER=  2 ZONE=  2 ACTIVE CELLS= 1271 NUMBER OF EQUATIONS=    1271
 UBUDSV SAVING "      ZETASRF  1" ON UNIT 55 AT TIME STEP155, STRESS PERIOD    3

 HEAD WILL BE SAVED ON UNIT   51 AT END OF TIME STEP  155, STRESS PERIOD    3
 
 SOLVING FOR HEAD 
                                                   Max.-Head-Change                         Max.-Flux-Residual
  Residual-Control   Outer-Iter.   Inner-Iter.     Column Row Layer    Maximum-Head-Change  Column Row Layer    Maximum-Flux-Residual          L2-NORM 
          0                 1           1            36   31     2      -0.5305726371E-03      36   31    2        -0.3352105618E+00      0.8759777519E+00
          0                 2           1            34   32     2      -0.2062843285E-04      35   48    1         0.4694885156E-02      0.2614218817E-01
          0                 3           1            37   31     2      -0.1980798216E-04      37   31    2        -0.1181384409E-02      0.8891175125E-02
          0                 4           1            39   29     2      -0.7530603565E-05      39   29    2        -0.6293894683E-03      0.5465113960E-02

    ------------------------------------------------
       NWT REQUIRED            4 OUTER ITERATIONS 
       AND A TOTAL OF          4 INNER ITERATIONS.
    ------------------------------------------------

 OUTPUT CONTROL FOR STRESS PERIOD    3   TIME STEP  156
    SAVE HEAD FOR ALL LAYERS
 SOLVING FOR ZETA FOR LAYER     1 ZONE     2

     736 UPPER PART EQS.       743 LOWER PART EQS.    BAND WIDTH + 1 =   28
 STRESS PERIOD=  3 TIMESTEP=156 LAYER=  1 ZONE=  2 ACTIVE CELLS= 1479 NUMBER OF EQUATIONS=    1479
 SOLVING FOR ZETA FOR LAYER     2 ZONE     2

     635 UPPER PART EQS.       636 LOWER PART EQS.    BAND WIDTH + 1 =   31
 STRESS PERIOD=  3 TIMESTEP=156 LAYER=  2 ZONE=  2 ACTIVE CELLS= 1271 NUMBER OF EQUATIONS=    1271
 UBUDSV SAVING "      ZETASRF  1" ON UNIT 55 AT TIME STEP156, STRESS PERIOD    3

 HEAD WILL BE SAVED ON UNIT   51 AT END OF TIME STEP  156, STRESS PERIOD    3
 
 SOLVING FOR HEAD 
                                                   Max.-Head-Change                         Max.-Flux-Residual
  Residual-Control   Outer-Iter.   Inner-Iter.     Column Row Layer    Maximum-Head-Change  Column Row Layer    Maximum-Flux-Residual          L2-NORM 
          0                 1           1            36   31     2      -0.5372432207E-03      36   31    2        -0.3406803608E+00      0.6151234792E+00
          0                 2           1            34   32     2      -0.2278415719E-04      39   46    1        -0.4124806304E-02      0.2485009710E-01
          0                 3           1            37   31     2      -0.1833985691E-04      37   31    2        -0.1245410234E-02      0.1117467514E-01
          0                 4           1            34   32     2      -0.1078661325E-04      39   29    2        -0.8935949548E-03      0.7705281913E-02
          0                 5           1            37   31     2      -0.1110386961E-04      37   31    2        -0.6629656447E-03      0.6204060104E-02
          0                 6           1            34   32     2      -0.7363050152E-05      39   29    2        -0.5182845304E-03      0.5269357989E-02

    ------------------------------------------------
       NWT REQUIRED            6 OUTER ITERATIONS 
       AND A TOTAL OF          6 INNER ITERATIONS.
    ------------------------------------------------

 OUTPUT CONTROL FOR STRESS PERIOD    3   TIME STEP  157
    SAVE HEAD FOR ALL LAYERS
 SOLVING FOR ZETA FOR LAYER     1 ZONE     2

     726 UPPER PART EQS.       742 LOWER PART EQS.    BAND WIDTH + 1 =   37
 STRESS PERIOD=  3 TIMESTEP=157 LAYER=  1 ZONE=  2 ACTIVE CELLS= 1468 NUMBER OF EQUATIONS=    1468
 SOLVING FOR ZETA FOR LAYER     2 ZONE     2

     635 UPPER PART EQS.       636 LOWER PART EQS.    BAND WIDTH + 1 =   31
 STRESS PERIOD=  3 TIMESTEP=157 LAYER=  2 ZONE=  2 ACTIVE CELLS= 1271 NUMBER OF EQUATIONS=    1271
 UBUDSV SAVING "      ZETASRF  1" ON UNIT 55 AT TIME STEP157, STRESS PERIOD    3

 HEAD WILL BE SAVED ON UNIT   51 AT END OF TIME STEP  157, STRESS PERIOD    3
 
 SOLVING FOR HEAD 
                                                   Max.-Head-Change                         Max.-Flux-Residual
  Residual-Control   Outer-Iter.   Inner-Iter.     Column Row Layer    Maximum-Head-Change  Column Row Layer    Maximum-Flux-Residual          L2-NORM 
          0                 1           1            36   31     2      -0.5436013989E-03      36   31    2        -0.3462479115E+00      0.7518388228E+00
          0                 2           1            34   32     2      -0.2047756187E-04      21   48    1        -0.3701060586E-02      0.2665670837E-01
          0                 3           1            37   31     2      -0.1709191370E-04      37   31    2        -0.1162096738E-02      0.9751179673E-02
          0                 4           1            34   32     2      -0.8661519915E-05      39   29    2        -0.6417591503E-03      0.6529996445E-02

    ------------------------------------------------
       NWT REQUIRED            4 OUTER ITERATIONS 
       AND A TOTAL OF          4 INNER ITERATIONS.
    ------------------------------------------------

 OUTPUT CONTROL FOR STRESS PERIOD    3   TIME STEP  158
    SAVE HEAD FOR ALL LAYERS
 SOLVING FOR ZETA FOR LAYER     1 ZONE     2

     727 UPPER PART EQS.       738 LOWER PART EQS.    BAND WIDTH + 1 =   32
 STRESS PERIOD=  3 TIMESTEP=158 LAYER=  1 ZONE=  2 ACTIVE CELLS= 1465 NUMBER OF EQUATIONS=    1465
 SOLVING FOR ZETA FOR LAYER     2 ZONE     2

     635 UPPER PART EQS.       636 LOWER PART EQS.    BAND WIDTH + 1 =   31
 STRESS PERIOD=  3 TIMESTEP=158 LAYER=  2 ZONE=  2 ACTIVE CELLS= 1271 NUMBER OF EQUATIONS=    1271
 UBUDSV SAVING "      ZETASRF  1" ON UNIT 55 AT TIME STEP158, STRESS PERIOD    3

 HEAD WILL BE SAVED ON UNIT   51 AT END OF TIME STEP  158, STRESS PERIOD    3
 
 SOLVING FOR HEAD 
                                                   Max.-Head-Change                         Max.-Flux-Residual
  Residual-Control   Outer-Iter.   Inner-Iter.     Column Row Layer    Maximum-Head-Change  Column Row Layer    Maximum-Flux-Residual          L2-NORM 
          0                 1           1            36   31     2      -0.5512547047E-03      36   31    2        -0.3519842625E+00      0.7399865232E+00
          0                 2           1            34   32     2      -0.2189521232E-04      34   32    2        -0.3627300942E-02      0.2567219598E-01
          0                 3           1            37   31     2      -0.2074663802E-04      37   31    2        -0.1233368905E-02      0.1018034127E-01
          0                 4           1            34   32     2      -0.9864857998E-05      39   29    2        -0.7597261525E-03      0.7010451649E-02

    ------------------------------------------------
       NWT REQUIRED            4 OUTER ITERATIONS 
       AND A TOTAL OF          4 INNER ITERATIONS.
    ------------------------------------------------

 OUTPUT CONTROL FOR STRESS PERIOD    3   TIME STEP  159
    SAVE HEAD FOR ALL LAYERS
 SOLVING FOR ZETA FOR LAYER     1 ZONE     2

     730 UPPER PART EQS.       741 LOWER PART EQS.    BAND WIDTH + 1 =   32
 STRESS PERIOD=  3 TIMESTEP=159 LAYER=  1 ZONE=  2 ACTIVE CELLS= 1471 NUMBER OF EQUATIONS=    1471
 SOLVING FOR ZETA FOR LAYER     2 ZONE     2

     635 UPPER PART EQS.       636 LOWER PART EQS.    BAND WIDTH + 1 =   31
 STRESS PERIOD=  3 TIMESTEP=159 LAYER=  2 ZONE=  2 ACTIVE CELLS= 1271 NUMBER OF EQUATIONS=    1271
 UBUDSV SAVING "      ZETASRF  1" ON UNIT 55 AT TIME STEP159, STRESS PERIOD    3

 HEAD WILL BE SAVED ON UNIT   51 AT END OF TIME STEP  159, STRESS PERIOD    3
 
 SOLVING FOR HEAD 
                                                   Max.-Head-Change                         Max.-Flux-Residual
  Residual-Control   Outer-Iter.   Inner-Iter.     Column Row Layer    Maximum-Head-Change  Column Row Layer    Maximum-Flux-Residual          L2-NORM 
          0                 1           1            36   31     2      -0.5589440706E-03      36   31    2        -0.3578851223E+00      0.8390043518E+00
          0                 2           1            34   32     2      -0.2250861936E-04      20   15    1         0.4153080684E-02      0.2683833847E-01
          0                 3           1            37   31     2      -0.2173573624E-04      37   31    2        -0.1269753113E-02      0.1131066041E-01
          0                 4           1            34   32     2      -0.1059089800E-04      39   29    2        -0.8183921154E-03      0.7897426650E-02
          0                 5           1            37   31     2      -0.1219460462E-04      37   31    2        -0.6404229088E-03      0.6438744057E-02
          0                 6           1            34   32     2      -0.7251389169E-05      39   29    2        -0.5013744650E-03      0.5529386618E-02

    ------------------------------------------------
       NWT REQUIRED            6 OUTER ITERATIONS 
       AND A TOTAL OF          6 INNER ITERATIONS.
    ------------------------------------------------

 OUTPUT CONTROL FOR STRESS PERIOD    3   TIME STEP  160
    SAVE HEAD FOR ALL LAYERS
 SOLVING FOR ZETA FOR LAYER     1 ZONE     2

     732 UPPER PART EQS.       743 LOWER PART EQS.    BAND WIDTH + 1 =   32
 STRESS PERIOD=  3 TIMESTEP=160 LAYER=  1 ZONE=  2 ACTIVE CELLS= 1475 NUMBER OF EQUATIONS=    1475
 SOLVING FOR ZETA FOR LAYER     2 ZONE     2

     635 UPPER PART EQS.       636 LOWER PART EQS.    BAND WIDTH + 1 =   31
 STRESS PERIOD=  3 TIMESTEP=160 LAYER=  2 ZONE=  2 ACTIVE CELLS= 1271 NUMBER OF EQUATIONS=    1271
 UBUDSV SAVING "      ZETASRF  1" ON UNIT 55 AT TIME STEP160, STRESS PERIOD    3

 HEAD WILL BE SAVED ON UNIT   51 AT END OF TIME STEP  160, STRESS PERIOD    3
 
 SOLVING FOR HEAD 
                                                   Max.-Head-Change                         Max.-Flux-Residual
  Residual-Control   Outer-Iter.   Inner-Iter.     Column Row Layer    Maximum-Head-Change  Column Row Layer    Maximum-Flux-Residual          L2-NORM 
          0                 1           1            36   31     2      -0.5648592308E-03      36   31    2        -0.3638908863E+00      0.8480504378E+00
          0                 2           1            34   32     2      -0.2104026648E-04      34   32    2        -0.3598291612E-02      0.2378385883E-01
          0                 3           1            37   31     2      -0.1982053963E-04      37   31    2        -0.1200133529E-02      0.9883971940E-02
          0                 4           1            34   32     2      -0.9305534842E-05      39   29    2        -0.7427708478E-03      0.6967175496E-02

    ------------------------------------------------
       NWT REQUIRED            4 OUTER ITERATIONS 
       AND A TOTAL OF          4 INNER ITERATIONS.
    ------------------------------------------------

 OUTPUT CONTROL FOR STRESS PERIOD    3   TIME STEP  161
    SAVE HEAD FOR ALL LAYERS
 SOLVING FOR ZETA FOR LAYER     1 ZONE     2

     730 UPPER PART EQS.       738 LOWER PART EQS.    BAND WIDTH + 1 =   30
 STRESS PERIOD=  3 TIMESTEP=161 LAYER=  1 ZONE=  2 ACTIVE CELLS= 1468 NUMBER OF EQUATIONS=    1468
 SOLVING FOR ZETA FOR LAYER     2 ZONE     2

     635 UPPER PART EQS.       636 LOWER PART EQS.    BAND WIDTH + 1 =   31
 STRESS PERIOD=  3 TIMESTEP=161 LAYER=  2 ZONE=  2 ACTIVE CELLS= 1271 NUMBER OF EQUATIONS=    1271
 UBUDSV SAVING "      ZETASRF  1" ON UNIT 55 AT TIME STEP161, STRESS PERIOD    3

 HEAD WILL BE SAVED ON UNIT   51 AT END OF TIME STEP  161, STRESS PERIOD    3
 
 SOLVING FOR HEAD 
                                                   Max.-Head-Change                         Max.-Flux-Residual
  Residual-Control   Outer-Iter.   Inner-Iter.     Column Row Layer    Maximum-Head-Change  Column Row Layer    Maximum-Flux-Residual          L2-NORM 
          0                 1           1            36   31     2      -0.5737075575E-03      36   31    2        -0.3701298237E+00      0.7930806582E+00
          0                 2           1            34   32     2      -0.2234573744E-04      34   32    2        -0.3673472572E-02      0.2421645684E-01
          0                 3           1            37   31     2      -0.2258049535E-04      37   31    2        -0.1275683389E-02      0.1076248966E-01
          0                 4           1            34   32     2      -0.1018657850E-04      39   29    2        -0.7865212636E-03      0.7629396969E-02
          0                 5           1            37   31     2      -0.1185272911E-04      37   31    2        -0.6268805615E-03      0.6340990195E-02
          0                 6           1            34   32     2      -0.7216564467E-05      34   32    2        -0.4894641814E-03      0.5539174772E-02

    ------------------------------------------------
       NWT REQUIRED            6 OUTER ITERATIONS 
       AND A TOTAL OF          6 INNER ITERATIONS.
    ------------------------------------------------

 OUTPUT CONTROL FOR STRESS PERIOD    3   TIME STEP  162
    SAVE HEAD FOR ALL LAYERS
 SOLVING FOR ZETA FOR LAYER     1 ZONE     2

     726 UPPER PART EQS.       742 LOWER PART EQS.    BAND WIDTH + 1 =   37
 STRESS PERIOD=  3 TIMESTEP=162 LAYER=  1 ZONE=  2 ACTIVE CELLS= 1468 NUMBER OF EQUATIONS=    1468
 SOLVING FOR ZETA FOR LAYER     2 ZONE     2

     635 UPPER PART EQS.       636 LOWER PART EQS.    BAND WIDTH + 1 =   31
 STRESS PERIOD=  3 TIMESTEP=162 LAYER=  2 ZONE=  2 ACTIVE CELLS= 1271 NUMBER OF EQUATIONS=    1271
 UBUDSV SAVING "      ZETASRF  1" ON UNIT 55 AT TIME STEP162, STRESS PERIOD    3

 HEAD WILL BE SAVED ON UNIT   51 AT END OF TIME STEP  162, STRESS PERIOD    3
 
 SOLVING FOR HEAD 
                                                   Max.-Head-Change                         Max.-Flux-Residual
  Residual-Control   Outer-Iter.   Inner-Iter.     Column Row Layer    Maximum-Head-Change  Column Row Layer    Maximum-Flux-Residual          L2-NORM 
          0                 1           1            36   31     2      -0.5799045770E-03      36   31    2        -0.3764815331E+00      0.7774758440E+00
          0                 2           1            34   32     2      -0.2024273124E-04      34   32    2        -0.3610937221E-02      0.2296252090E-01
          0                 3           1            37   31     2      -0.2051905349E-04      37   31    2        -0.1176595124E-02      0.8930609838E-02
          0                 4           1            34   32     2      -0.8175569594E-05      39   29    2        -0.6442080947E-03      0.6207369593E-02

    ------------------------------------------------
       NWT REQUIRED            4 OUTER ITERATIONS 
       AND A TOTAL OF          4 INNER ITERATIONS.
    ------------------------------------------------

 OUTPUT CONTROL FOR STRESS PERIOD    3   TIME STEP  163
    SAVE HEAD FOR ALL LAYERS
 SOLVING FOR ZETA FOR LAYER     1 ZONE     2

     727 UPPER PART EQS.       741 LOWER PART EQS.    BAND WIDTH + 1 =   35
 STRESS PERIOD=  3 TIMESTEP=163 LAYER=  1 ZONE=  2 ACTIVE CELLS= 1468 NUMBER OF EQUATIONS=    1468
 SOLVING FOR ZETA FOR LAYER     2 ZONE     2

     635 UPPER PART EQS.       636 LOWER PART EQS.    BAND WIDTH + 1 =   31
 STRESS PERIOD=  3 TIMESTEP=163 LAYER=  2 ZONE=  2 ACTIVE CELLS= 1271 NUMBER OF EQUATIONS=    1271
 UBUDSV SAVING "      ZETASRF  1" ON UNIT 55 AT TIME STEP163, STRESS PERIOD    3

 HEAD WILL BE SAVED ON UNIT   51 AT END OF TIME STEP  163, STRESS PERIOD    3
 
 SOLVING FOR HEAD 
                                                   Max.-Head-Change                         Max.-Flux-Residual
  Residual-Control   Outer-Iter.   Inner-Iter.     Column Row Layer    Maximum-Head-Change  Column Row Layer    Maximum-Flux-Residual          L2-NORM 
          0                 1           1            36   31     2      -0.5885965558E-03      36   31    2        -0.3830559254E+00      0.6597282225E+00
          0                 2           1            34   32     2      -0.2185531142E-04      34   32    2        -0.3654413201E-02      0.1988008303E-01
          0                 3           1            37   31     2      -0.2181633664E-04      37   31    2        -0.1238171241E-02      0.9110203301E-02
          0                 4           1            34   32     2      -0.8787723934E-05      34   32    2        -0.7808593488E-03      0.6358742014E-02

    ------------------------------------------------
       NWT REQUIRED            4 OUTER ITERATIONS 
       AND A TOTAL OF          4 INNER ITERATIONS.
    ------------------------------------------------

 OUTPUT CONTROL FOR STRESS PERIOD    3   TIME STEP  164
    SAVE HEAD FOR ALL LAYERS
 SOLVING FOR ZETA FOR LAYER     1 ZONE     2

     732 UPPER PART EQS.       739 LOWER PART EQS.    BAND WIDTH + 1 =   29
 STRESS PERIOD=  3 TIMESTEP=164 LAYER=  1 ZONE=  2 ACTIVE CELLS= 1471 NUMBER OF EQUATIONS=    1471
 SOLVING FOR ZETA FOR LAYER     2 ZONE     2

     635 UPPER PART EQS.       636 LOWER PART EQS.    BAND WIDTH + 1 =   31
 STRESS PERIOD=  3 TIMESTEP=164 LAYER=  2 ZONE=  2 ACTIVE CELLS= 1271 NUMBER OF EQUATIONS=    1271
 UBUDSV SAVING "      ZETASRF  1" ON UNIT 55 AT TIME STEP164, STRESS PERIOD    3

 HEAD WILL BE SAVED ON UNIT   51 AT END OF TIME STEP  164, STRESS PERIOD    3
 
 SOLVING FOR HEAD 
                                                   Max.-Head-Change                         Max.-Flux-Residual
  Residual-Control   Outer-Iter.   Inner-Iter.     Column Row Layer    Maximum-Head-Change  Column Row Layer    Maximum-Flux-Residual          L2-NORM 
          0                 1           1            36   31     2      -0.5966739608E-03      36   31    2        -0.3897702694E+00      0.7470347448E+00
          0                 2           1            34   32     2      -0.2204105419E-04      20   15    1         0.4257136065E-02      0.2412290641E-01
          0                 3           1            37   31     2      -0.2168229592E-04      37   31    2        -0.1256319600E-02      0.1048621878E-01
          0                 4           1            34   32     2      -0.9764511602E-05      39   29    2        -0.7878909353E-03      0.7369488944E-02

    ------------------------------------------------
       NWT REQUIRED            4 OUTER ITERATIONS 
       AND A TOTAL OF          4 INNER ITERATIONS.
    ------------------------------------------------

 OUTPUT CONTROL FOR STRESS PERIOD    3   TIME STEP  165
    SAVE HEAD FOR ALL LAYERS
 SOLVING FOR ZETA FOR LAYER     1 ZONE     2

     734 UPPER PART EQS.       742 LOWER PART EQS.    BAND WIDTH + 1 =   31
 STRESS PERIOD=  3 TIMESTEP=165 LAYER=  1 ZONE=  2 ACTIVE CELLS= 1476 NUMBER OF EQUATIONS=    1476
 SOLVING FOR ZETA FOR LAYER     2 ZONE     2

     635 UPPER PART EQS.       636 LOWER PART EQS.    BAND WIDTH + 1 =   31
 STRESS PERIOD=  3 TIMESTEP=165 LAYER=  2 ZONE=  2 ACTIVE CELLS= 1271 NUMBER OF EQUATIONS=    1271
 UBUDSV SAVING "      ZETASRF  1" ON UNIT 55 AT TIME STEP165, STRESS PERIOD    3

 HEAD WILL BE SAVED ON UNIT   51 AT END OF TIME STEP  165, STRESS PERIOD    3
 
 SOLVING FOR HEAD 
                                                   Max.-Head-Change                         Max.-Flux-Residual
  Residual-Control   Outer-Iter.   Inner-Iter.     Column Row Layer    Maximum-Head-Change  Column Row Layer    Maximum-Flux-Residual          L2-NORM 
          0                 1           1            36   31     2      -0.6055372705E-03      36   31    2        -0.3967216015E+00      0.9518746505E+00
          0                 2           1            34   32     2      -0.2387968185E-04      34   32    2        -0.3691869814E-02      0.2738057588E-01
          0                 3           1            37   31     2      -0.2140255022E-04      37   31    2        -0.1313886226E-02      0.1262988839E-01
          0                 4           1            34   32     2      -0.1268387297E-04      39   29    2        -0.9138560426E-03      0.9270202864E-02
          0                 5           1            37   31     2      -0.1344289990E-04      37   31    2        -0.7344710360E-03      0.7810318694E-02
          0                 6           1            34   32     2      -0.9063710206E-05      39   29    2        -0.5894671772E-03      0.6848276660E-02

    ------------------------------------------------
       NWT REQUIRED            6 OUTER ITERATIONS 
       AND A TOTAL OF          6 INNER ITERATIONS.
    ------------------------------------------------

 OUTPUT CONTROL FOR STRESS PERIOD    3   TIME STEP  166
    SAVE HEAD FOR ALL LAYERS
 SOLVING FOR ZETA FOR LAYER     1 ZONE     2

     724 UPPER PART EQS.       742 LOWER PART EQS.    BAND WIDTH + 1 =   39
 STRESS PERIOD=  3 TIMESTEP=166 LAYER=  1 ZONE=  2 ACTIVE CELLS= 1466 NUMBER OF EQUATIONS=    1466
 SOLVING FOR ZETA FOR LAYER     2 ZONE     2

     635 UPPER PART EQS.       636 LOWER PART EQS.    BAND WIDTH + 1 =   31
 STRESS PERIOD=  3 TIMESTEP=166 LAYER=  2 ZONE=  2 ACTIVE CELLS= 1271 NUMBER OF EQUATIONS=    1271
 UBUDSV SAVING "      ZETASRF  1" ON UNIT 55 AT TIME STEP166, STRESS PERIOD    3

 HEAD WILL BE SAVED ON UNIT   51 AT END OF TIME STEP  166, STRESS PERIOD    3
 
 SOLVING FOR HEAD 
                                                   Max.-Head-Change                         Max.-Flux-Residual
  Residual-Control   Outer-Iter.   Inner-Iter.     Column Row Layer    Maximum-Head-Change  Column Row Layer    Maximum-Flux-Residual          L2-NORM 
          0                 1           1            36   31     2      -0.6128653944E-03      36   31    2        -0.4038455486E+00      0.9006441024E+00
          0                 2           1            34   32     2      -0.2110315373E-04      11   40    1         0.3848513771E-02      0.2643376002E-01
          0                 3           1            37   31     2      -0.2014272855E-04      37   31    2        -0.1222410238E-02      0.9795862823E-02
          0                 4           1            34   32     2      -0.9141764765E-05      39   29    2        -0.6876610497E-03      0.6717011229E-02

    ------------------------------------------------
       NWT REQUIRED            4 OUTER ITERATIONS 
       AND A TOTAL OF          4 INNER ITERATIONS.
    ------------------------------------------------

 OUTPUT CONTROL FOR STRESS PERIOD    3   TIME STEP  167
    SAVE HEAD FOR ALL LAYERS
 SOLVING FOR ZETA FOR LAYER     1 ZONE     2

     726 UPPER PART EQS.       739 LOWER PART EQS.    BAND WIDTH + 1 =   34
 STRESS PERIOD=  3 TIMESTEP=167 LAYER=  1 ZONE=  2 ACTIVE CELLS= 1465 NUMBER OF EQUATIONS=    1465
 SOLVING FOR ZETA FOR LAYER     2 ZONE     2

     635 UPPER PART EQS.       636 LOWER PART EQS.    BAND WIDTH + 1 =   31
 STRESS PERIOD=  3 TIMESTEP=167 LAYER=  2 ZONE=  2 ACTIVE CELLS= 1271 NUMBER OF EQUATIONS=    1271
 UBUDSV SAVING "      ZETASRF  1" ON UNIT 55 AT TIME STEP167, STRESS PERIOD    3

 HEAD WILL BE SAVED ON UNIT   51 AT END OF TIME STEP  167, STRESS PERIOD    3
 
 SOLVING FOR HEAD 
                                                   Max.-Head-Change                         Max.-Flux-Residual
  Residual-Control   Outer-Iter.   Inner-Iter.     Column Row Layer    Maximum-Head-Change  Column Row Layer    Maximum-Flux-Residual          L2-NORM 
          0                 1           1            36   31     2      -0.6216961671E-03      36   31    2        -0.4112267494E+00      0.6665448494E+00
          0                 2           1            34   32     2      -0.2162471124E-04      34   32    2        -0.3632515058E-02      0.2098144334E-01
          0                 3           1            37   31     2      -0.2251070036E-04      37   31    2        -0.1209231390E-02      0.9100898575E-02
          0                 4           1            34   32     2      -0.8127695212E-05      34   32    2        -0.7018013787E-03      0.6147680726E-02

    ------------------------------------------------
       NWT REQUIRED            4 OUTER ITERATIONS 
       AND A TOTAL OF          4 INNER ITERATIONS.
    ------------------------------------------------

 OUTPUT CONTROL FOR STRESS PERIOD    3   TIME STEP  168
    SAVE HEAD FOR ALL LAYERS
 SOLVING FOR ZETA FOR LAYER     1 ZONE     2

     733 UPPER PART EQS.       743 LOWER PART EQS.    BAND WIDTH + 1 =   31
 STRESS PERIOD=  3 TIMESTEP=168 LAYER=  1 ZONE=  2 ACTIVE CELLS= 1476 NUMBER OF EQUATIONS=    1476
 SOLVING FOR ZETA FOR LAYER     2 ZONE     2

     635 UPPER PART EQS.       636 LOWER PART EQS.    BAND WIDTH + 1 =   31
 STRESS PERIOD=  3 TIMESTEP=168 LAYER=  2 ZONE=  2 ACTIVE CELLS= 1271 NUMBER OF EQUATIONS=    1271
 UBUDSV SAVING "      ZETASRF  1" ON UNIT 55 AT TIME STEP168, STRESS PERIOD    3

 HEAD WILL BE SAVED ON UNIT   51 AT END OF TIME STEP  168, STRESS PERIOD    3
 
 SOLVING FOR HEAD 
                                                   Max.-Head-Change                         Max.-Flux-Residual
  Residual-Control   Outer-Iter.   Inner-Iter.     Column Row Layer    Maximum-Head-Change  Column Row Layer    Maximum-Flux-Residual          L2-NORM 
          0                 1           1            36   31     2      -0.6305810741E-03      36   31    2        -0.4188153744E+00      0.6858764756E+00
          0                 2           1            34   32     2      -0.2326589474E-04      33   48    1        -0.3892216467E-02      0.2403076237E-01
          0                 3           1            37   31     2      -0.1952598786E-04      37   31    2        -0.1265430596E-02      0.1123543945E-01
          0                 4           1            39   29     2      -0.1132805920E-04      39   29    2        -0.9120370663E-03      0.7991607843E-02
          0                 5           1            37   31     2      -0.1170584997E-04      37   31    2        -0.6843385874E-03      0.6552029781E-02
          0                 6           1            34   32     2      -0.7737468601E-05      39   29    2        -0.5397159510E-03      0.5616095590E-02

    ------------------------------------------------
       NWT REQUIRED            6 OUTER ITERATIONS 
       AND A TOTAL OF          6 INNER ITERATIONS.
    ------------------------------------------------

 OUTPUT CONTROL FOR STRESS PERIOD    3   TIME STEP  169
    SAVE HEAD FOR ALL LAYERS
 SOLVING FOR ZETA FOR LAYER     1 ZONE     2

     730 UPPER PART EQS.       742 LOWER PART EQS.    BAND WIDTH + 1 =   35
 STRESS PERIOD=  3 TIMESTEP=169 LAYER=  1 ZONE=  2 ACTIVE CELLS= 1472 NUMBER OF EQUATIONS=    1472
 SOLVING FOR ZETA FOR LAYER     2 ZONE     2

     635 UPPER PART EQS.       636 LOWER PART EQS.    BAND WIDTH + 1 =   31
 STRESS PERIOD=  3 TIMESTEP=169 LAYER=  2 ZONE=  2 ACTIVE CELLS= 1271 NUMBER OF EQUATIONS=    1271
 UBUDSV SAVING "      ZETASRF  1" ON UNIT 55 AT TIME STEP169, STRESS PERIOD    3

 HEAD WILL BE SAVED ON UNIT   51 AT END OF TIME STEP  169, STRESS PERIOD    3
 
 SOLVING FOR HEAD 
                                                   Max.-Head-Change                         Max.-Flux-Residual
  Residual-Control   Outer-Iter.   Inner-Iter.     Column Row Layer    Maximum-Head-Change  Column Row Layer    Maximum-Flux-Residual          L2-NORM 
          0                 1           1            36   31     2      -0.6389130518E-03      36   31    2        -0.4265863895E+00      0.1112857039E+01
          0                 2           1            19   22     1      -0.2129082807E-04      21   48    1        -0.5406237610E-02      0.3560425391E-01
          0                 3           1            37   31     2      -0.1828104454E-04      37   31    2        -0.1178908951E-02      0.1313939424E-01
          0                 4           1            34   32     2      -0.1038170060E-04      39   29    2        -0.6607856430E-03      0.9140462187E-02
          0                 5           1            31   33     2      -0.1122925307E-04      37   31    2        -0.5677092053E-03      0.7877062349E-02
          0                 6           1            33   31     2      -0.8257646076E-05      35   33    2        -0.4476268015E-03      0.7024980290E-02

    ------------------------------------------------
       NWT REQUIRED            6 OUTER ITERATIONS 
       AND A TOTAL OF          6 INNER ITERATIONS.
    ------------------------------------------------

 OUTPUT CONTROL FOR STRESS PERIOD    3   TIME STEP  170
    SAVE HEAD FOR ALL LAYERS
 SOLVING FOR ZETA FOR LAYER     1 ZONE     2

     726 UPPER PART EQS.       736 LOWER PART EQS.    BAND WIDTH + 1 =   32
 STRESS PERIOD=  3 TIMESTEP=170 LAYER=  1 ZONE=  2 ACTIVE CELLS= 1462 NUMBER OF EQUATIONS=    1462
 SOLVING FOR ZETA FOR LAYER     2 ZONE     2

     635 UPPER PART EQS.       636 LOWER PART EQS.    BAND WIDTH + 1 =   31
 STRESS PERIOD=  3 TIMESTEP=170 LAYER=  2 ZONE=  2 ACTIVE CELLS= 1271 NUMBER OF EQUATIONS=    1271
 UBUDSV SAVING "      ZETASRF  1" ON UNIT 55 AT TIME STEP170, STRESS PERIOD    3

 HEAD WILL BE SAVED ON UNIT   51 AT END OF TIME STEP  170, STRESS PERIOD    3
 
 SOLVING FOR HEAD 
                                                   Max.-Head-Change                         Max.-Flux-Residual
  Residual-Control   Outer-Iter.   Inner-Iter.     Column Row Layer    Maximum-Head-Change  Column Row Layer    Maximum-Flux-Residual          L2-NORM 
          0                 1           1            36   31     2      -0.6484189392E-03      36   31    2        -0.4346389771E+00      0.1000902780E+01
          0                 2           1            34   32     2      -0.2036297739E-04      18   39    1         0.5167235320E-02      0.3077285311E-01
          0                 3           1            37   31     2      -0.2002272268E-04      37   31    2        -0.1176423806E-02      0.1001924769E-01
          0                 4           1            39   29     2      -0.8127336442E-05      39   29    2        -0.6010949029E-03      0.6293769611E-02

    ------------------------------------------------
       NWT REQUIRED            4 OUTER ITERATIONS 
       AND A TOTAL OF          4 INNER ITERATIONS.
    ------------------------------------------------

 OUTPUT CONTROL FOR STRESS PERIOD    3   TIME STEP  171
    SAVE HEAD FOR ALL LAYERS
 SOLVING FOR ZETA FOR LAYER     1 ZONE     2

     736 UPPER PART EQS.       739 LOWER PART EQS.    BAND WIDTH + 1 =   28
 STRESS PERIOD=  3 TIMESTEP=171 LAYER=  1 ZONE=  2 ACTIVE CELLS= 1475 NUMBER OF EQUATIONS=    1475
 SOLVING FOR ZETA FOR LAYER     2 ZONE     2

     635 UPPER PART EQS.       636 LOWER PART EQS.    BAND WIDTH + 1 =   31
 STRESS PERIOD=  3 TIMESTEP=171 LAYER=  2 ZONE=  2 ACTIVE CELLS= 1271 NUMBER OF EQUATIONS=    1271
 UBUDSV SAVING "      ZETASRF  1" ON UNIT 55 AT TIME STEP171, STRESS PERIOD    3

 HEAD WILL BE SAVED ON UNIT   51 AT END OF TIME STEP  171, STRESS PERIOD    3
 
 SOLVING FOR HEAD 
                                                   Max.-Head-Change                         Max.-Flux-Residual
  Residual-Control   Outer-Iter.   Inner-Iter.     Column Row Layer    Maximum-Head-Change  Column Row Layer    Maximum-Flux-Residual          L2-NORM 
          0                 1           1            36   31     2      -0.6585970873E-03      36   31    2        -0.4429593086E+00      0.8277333615E+00
          0                 2           1            34   32     2      -0.2192243497E-04      34   15    1         0.3801849807E-02      0.2553621164E-01
          0                 3           1            37   31     2      -0.2012862812E-04      37   31    2        -0.1233765223E-02      0.1121867738E-01
          0                 4           1            34   32     2      -0.1019868670E-04      39   29    2        -0.8171851184E-03      0.7701722781E-02
          0                 5           1            37   31     2      -0.1177108816E-04      37   31    2        -0.6228660948E-03      0.6308065897E-02
          0                 6           1            34   32     2      -0.7204452115E-05      39   29    2        -0.4870554789E-03      0.5416703308E-02

    ------------------------------------------------
       NWT REQUIRED            6 OUTER ITERATIONS 
       AND A TOTAL OF          6 INNER ITERATIONS.
    ------------------------------------------------

 OUTPUT CONTROL FOR STRESS PERIOD    3   TIME STEP  172
    SAVE HEAD FOR ALL LAYERS
 SOLVING FOR ZETA FOR LAYER     1 ZONE     2

     722 UPPER PART EQS.       743 LOWER PART EQS.    BAND WIDTH + 1 =   42
 STRESS PERIOD=  3 TIMESTEP=172 LAYER=  1 ZONE=  2 ACTIVE CELLS= 1465 NUMBER OF EQUATIONS=    1465
 SOLVING FOR ZETA FOR LAYER     2 ZONE     2

     635 UPPER PART EQS.       636 LOWER PART EQS.    BAND WIDTH + 1 =   31
 STRESS PERIOD=  3 TIMESTEP=172 LAYER=  2 ZONE=  2 ACTIVE CELLS= 1271 NUMBER OF EQUATIONS=    1271
 UBUDSV SAVING "      ZETASRF  1" ON UNIT 55 AT TIME STEP172, STRESS PERIOD    3

 HEAD WILL BE SAVED ON UNIT   51 AT END OF TIME STEP  172, STRESS PERIOD    3
 
 SOLVING FOR HEAD 
                                                   Max.-Head-Change                         Max.-Flux-Residual
  Residual-Control   Outer-Iter.   Inner-Iter.     Column Row Layer    Maximum-Head-Change  Column Row Layer    Maximum-Flux-Residual          L2-NORM 
          0                 1           1            36   31     2      -0.6679148591E-03      36   31    2        -0.4515459538E+00      0.8575639783E+00
          0                 2           1            34   32     2      -0.2045782021E-04      34   32    2        -0.3586088196E-02      0.2081724740E-01
          0                 3           1            37   31     2      -0.1977776555E-04      37   31    2        -0.1158022123E-02      0.8313821509E-02
          0                 4           1            34   32     2      -0.7616673364E-05      39   29    2        -0.6546045335E-03      0.5599169927E-02

    ------------------------------------------------
       NWT REQUIRED            4 OUTER ITERATIONS 
       AND A TOTAL OF          4 INNER ITERATIONS.
    ------------------------------------------------

 OUTPUT CONTROL FOR STRESS PERIOD    3   TIME STEP  173
    SAVE HEAD FOR ALL LAYERS
 SOLVING FOR ZETA FOR LAYER     1 ZONE     2

     731 UPPER PART EQS.       742 LOWER PART EQS.    BAND WIDTH + 1 =   32
 STRESS PERIOD=  3 TIMESTEP=173 LAYER=  1 ZONE=  2 ACTIVE CELLS= 1473 NUMBER OF EQUATIONS=    1473
 SOLVING FOR ZETA FOR LAYER     2 ZONE     2

     635 UPPER PART EQS.       636 LOWER PART EQS.    BAND WIDTH + 1 =   31
 STRESS PERIOD=  3 TIMESTEP=173 LAYER=  2 ZONE=  2 ACTIVE CELLS= 1271 NUMBER OF EQUATIONS=    1271
 UBUDSV SAVING "      ZETASRF  1" ON UNIT 55 AT TIME STEP173, STRESS PERIOD    3

 HEAD WILL BE SAVED ON UNIT   51 AT END OF TIME STEP  173, STRESS PERIOD    3
 
 SOLVING FOR HEAD 
                                                   Max.-Head-Change                         Max.-Flux-Residual
  Residual-Control   Outer-Iter.   Inner-Iter.     Column Row Layer    Maximum-Head-Change  Column Row Layer    Maximum-Flux-Residual          L2-NORM 
          0                 1           1            36   31     2      -0.6787082282E-03      36   31    2        -0.4604465961E+00      0.8382097268E+00
          0                 2           1            34   32     2      -0.2213845238E-04      22   15    1         0.3779150230E-02      0.2708809365E-01
          0                 3           1            37   31     2      -0.1814145426E-04      37   31    2        -0.1203628475E-02      0.1110822578E-01
          0                 4           1            34   32     2      -0.1053175509E-04      39   29    2        -0.7737767996E-03      0.7603252099E-02
          0                 5           1            37   31     2      -0.1043399353E-04      37   31    2        -0.6054540909E-03      0.6260962412E-02
          0                 6           1            34   32     2      -0.7594100383E-05      39   29    2        -0.4573843481E-03      0.5451491003E-02

    ------------------------------------------------
       NWT REQUIRED            6 OUTER ITERATIONS 
       AND A TOTAL OF          6 INNER ITERATIONS.
    ------------------------------------------------

 OUTPUT CONTROL FOR STRESS PERIOD    3   TIME STEP  174
    SAVE HEAD FOR ALL LAYERS
 SOLVING FOR ZETA FOR LAYER     1 ZONE     2

     728 UPPER PART EQS.       742 LOWER PART EQS.    BAND WIDTH + 1 =   35
 STRESS PERIOD=  3 TIMESTEP=174 LAYER=  1 ZONE=  2 ACTIVE CELLS= 1470 NUMBER OF EQUATIONS=    1470
 SOLVING FOR ZETA FOR LAYER     2 ZONE     2

     635 UPPER PART EQS.       636 LOWER PART EQS.    BAND WIDTH + 1 =   31
 STRESS PERIOD=  3 TIMESTEP=174 LAYER=  2 ZONE=  2 ACTIVE CELLS= 1271 NUMBER OF EQUATIONS=    1271
 UBUDSV SAVING "      ZETASRF  1" ON UNIT 55 AT TIME STEP174, STRESS PERIOD    3

 HEAD WILL BE SAVED ON UNIT   51 AT END OF TIME STEP  174, STRESS PERIOD    3
 
 SOLVING FOR HEAD 
                                                   Max.-Head-Change                         Max.-Flux-Residual
  Residual-Control   Outer-Iter.   Inner-Iter.     Column Row Layer    Maximum-Head-Change  Column Row Layer    Maximum-Flux-Residual          L2-NORM 
          0                 1           1            36   31     2      -0.6889208214E-03      36   31    2        -0.4695682526E+00      0.7692846032E+00
          0                 2           1            34   32     2      -0.2053361090E-04      34   32    2        -0.3588408536E-02      0.2349402387E-01
          0                 3           1            37   31     2      -0.2042328335E-04      37   31    2        -0.1185198196E-02      0.9330644442E-02
          0                 4           1            39   29     2      -0.8284546660E-05      39   29    2        -0.6995603693E-03      0.6164033504E-02

    ------------------------------------------------
       NWT REQUIRED            4 OUTER ITERATIONS 
       AND A TOTAL OF          4 INNER ITERATIONS.
    ------------------------------------------------

 OUTPUT CONTROL FOR STRESS PERIOD    3   TIME STEP  175
    SAVE HEAD FOR ALL LAYERS
 SOLVING FOR ZETA FOR LAYER     1 ZONE     2

     732 UPPER PART EQS.       741 LOWER PART EQS.    BAND WIDTH + 1 =   31
 STRESS PERIOD=  3 TIMESTEP=175 LAYER=  1 ZONE=  2 ACTIVE CELLS= 1473 NUMBER OF EQUATIONS=    1473
 SOLVING FOR ZETA FOR LAYER     2 ZONE     2

     635 UPPER PART EQS.       636 LOWER PART EQS.    BAND WIDTH + 1 =   31
 STRESS PERIOD=  3 TIMESTEP=175 LAYER=  2 ZONE=  2 ACTIVE CELLS= 1271 NUMBER OF EQUATIONS=    1271
 UBUDSV SAVING "      ZETASRF  1" ON UNIT 55 AT TIME STEP175, STRESS PERIOD    3

 HEAD WILL BE SAVED ON UNIT   51 AT END OF TIME STEP  175, STRESS PERIOD    3
 
 SOLVING FOR HEAD 
                                                   Max.-Head-Change                         Max.-Flux-Residual
  Residual-Control   Outer-Iter.   Inner-Iter.     Column Row Layer    Maximum-Head-Change  Column Row Layer    Maximum-Flux-Residual          L2-NORM 
          0                 1           1            36   31     2      -0.7007185953E-03      36   31    2        -0.4790358543E+00      0.7682576855E+00
          0                 2           1            34   32     2      -0.2174703196E-04      20   15    1         0.4390704002E-02      0.2247866111E-01
          0                 3           1            37   31     2      -0.1841912612E-04      37   31    2        -0.1210930823E-02      0.9618174138E-02
          0                 4           1            34   32     2      -0.9380503236E-05      39   29    2        -0.7356412590E-03      0.6603563612E-02

    ------------------------------------------------
       NWT REQUIRED            4 OUTER ITERATIONS 
       AND A TOTAL OF          4 INNER ITERATIONS.
    ------------------------------------------------

 OUTPUT CONTROL FOR STRESS PERIOD    3   TIME STEP  176
    SAVE HEAD FOR ALL LAYERS
 SOLVING FOR ZETA FOR LAYER     1 ZONE     2

     732 UPPER PART EQS.       737 LOWER PART EQS.    BAND WIDTH + 1 =   27
 STRESS PERIOD=  3 TIMESTEP=176 LAYER=  1 ZONE=  2 ACTIVE CELLS= 1469 NUMBER OF EQUATIONS=    1469
 SOLVING FOR ZETA FOR LAYER     2 ZONE     2

     635 UPPER PART EQS.       636 LOWER PART EQS.    BAND WIDTH + 1 =   31
 STRESS PERIOD=  3 TIMESTEP=176 LAYER=  2 ZONE=  2 ACTIVE CELLS= 1271 NUMBER OF EQUATIONS=    1271
 UBUDSV SAVING "      ZETASRF  1" ON UNIT 55 AT TIME STEP176, STRESS PERIOD    3

 HEAD WILL BE SAVED ON UNIT   51 AT END OF TIME STEP  176, STRESS PERIOD    3
 
 SOLVING FOR HEAD 
                                                   Max.-Head-Change                         Max.-Flux-Residual
  Residual-Control   Outer-Iter.   Inner-Iter.     Column Row Layer    Maximum-Head-Change  Column Row Layer    Maximum-Flux-Residual          L2-NORM 
          0                 1           1            36   31     2      -0.7121128751E-03      36   31    2        -0.4887957573E+00      0.9111190524E+00
          0                 2           1            34   32     2      -0.2156966976E-04      11   40    1         0.4319197265E-02      0.2538167052E-01
          0                 3           1            37   31     2      -0.2162507654E-04      37   31    2        -0.1231813597E-02      0.1049725060E-01
          0                 4           1            34   32     2      -0.1001779031E-04      39   29    2        -0.7316228707E-03      0.7448682895E-02
          0                 5           1            37   31     2      -0.1122930145E-04      37   31    2        -0.6046578513E-03      0.6175446035E-02
          0                 6           1            34   32     2      -0.7163471078E-05      39   29    2        -0.4570740700E-03      0.5383401693E-02

    ------------------------------------------------
       NWT REQUIRED            6 OUTER ITERATIONS 
       AND A TOTAL OF          6 INNER ITERATIONS.
    ------------------------------------------------

 OUTPUT CONTROL FOR STRESS PERIOD    3   TIME STEP  177
    SAVE HEAD FOR ALL LAYERS
 SOLVING FOR ZETA FOR LAYER     1 ZONE     2

     730 UPPER PART EQS.       742 LOWER PART EQS.    BAND WIDTH + 1 =   33
 STRESS PERIOD=  3 TIMESTEP=177 LAYER=  1 ZONE=  2 ACTIVE CELLS= 1472 NUMBER OF EQUATIONS=    1472
 SOLVING FOR ZETA FOR LAYER     2 ZONE     2

     635 UPPER PART EQS.       636 LOWER PART EQS.    BAND WIDTH + 1 =   31
 STRESS PERIOD=  3 TIMESTEP=177 LAYER=  2 ZONE=  2 ACTIVE CELLS= 1271 NUMBER OF EQUATIONS=    1271
 UBUDSV SAVING "      ZETASRF  1" ON UNIT 55 AT TIME STEP177, STRESS PERIOD    3

 HEAD WILL BE SAVED ON UNIT   51 AT END OF TIME STEP  177, STRESS PERIOD    3
 
 SOLVING FOR HEAD 
                                                   Max.-Head-Change                         Max.-Flux-Residual
  Residual-Control   Outer-Iter.   Inner-Iter.     Column Row Layer    Maximum-Head-Change  Column Row Layer    Maximum-Flux-Residual          L2-NORM 
          0                 1           1            36   31     2      -0.7224381296E-03      36   31    2        -0.4989328384E+00      0.1061996975E+01
          0                 2           1            34   32     2      -0.2163391781E-04      11   40    1        -0.4130361398E-02      0.3072249041E-01
          0                 3           1            37   31     2      -0.1970158705E-04      37   31    2        -0.1202067418E-02      0.1280945018E-01
          0                 4           1            34   32     2      -0.1191034697E-04      39   29    2        -0.8214891168E-03      0.9045336092E-02
          0                 5           1            37   31     2      -0.1274201134E-04      37   31    2        -0.6727261935E-03      0.7569152315E-02
          0                 6           1            34   32     2      -0.8590748062E-05      39   29    2        -0.5259839943E-03      0.6611816796E-02

    ------------------------------------------------
       NWT REQUIRED            6 OUTER ITERATIONS 
       AND A TOTAL OF          6 INNER ITERATIONS.
    ------------------------------------------------

 OUTPUT CONTROL FOR STRESS PERIOD    3   TIME STEP  178
    SAVE HEAD FOR ALL LAYERS
 SOLVING FOR ZETA FOR LAYER     1 ZONE     2

     721 UPPER PART EQS.       740 LOWER PART EQS.    BAND WIDTH + 1 =   40
 STRESS PERIOD=  3 TIMESTEP=178 LAYER=  1 ZONE=  2 ACTIVE CELLS= 1461 NUMBER OF EQUATIONS=    1461
 SOLVING FOR ZETA FOR LAYER     2 ZONE     2

     635 UPPER PART EQS.       636 LOWER PART EQS.    BAND WIDTH + 1 =   31
 STRESS PERIOD=  3 TIMESTEP=178 LAYER=  2 ZONE=  2 ACTIVE CELLS= 1271 NUMBER OF EQUATIONS=    1271
 UBUDSV SAVING "      ZETASRF  1" ON UNIT 55 AT TIME STEP178, STRESS PERIOD    3

 HEAD WILL BE SAVED ON UNIT   51 AT END OF TIME STEP  178, STRESS PERIOD    3
 
 SOLVING FOR HEAD 
                                                   Max.-Head-Change                         Max.-Flux-Residual
  Residual-Control   Outer-Iter.   Inner-Iter.     Column Row Layer    Maximum-Head-Change  Column Row Layer    Maximum-Flux-Residual          L2-NORM 
          0                 1           1            36   31     2      -0.7352097316E-03      36   31    2        -0.5093941689E+00      0.1011124789E+01
          0                 2           1            34   32     2      -0.1993749432E-04      19   42    1        -0.4245969306E-02      0.2894642556E-01
          0                 3           1            37   31     2      -0.1785691800E-04      37   31    2        -0.1151075153E-02      0.8696433567E-02
          0                 4           1            34   32     2      -0.7612923648E-05      39   29    2        -0.5500335421E-03      0.5388378187E-02

    ------------------------------------------------
       NWT REQUIRED            4 OUTER ITERATIONS 
       AND A TOTAL OF          4 INNER ITERATIONS.
    ------------------------------------------------

 OUTPUT CONTROL FOR STRESS PERIOD    3   TIME STEP  179
    SAVE HEAD FOR ALL LAYERS
 SOLVING FOR ZETA FOR LAYER     1 ZONE     2

     730 UPPER PART EQS.       741 LOWER PART EQS.    BAND WIDTH + 1 =   32
 STRESS PERIOD=  3 TIMESTEP=179 LAYER=  1 ZONE=  2 ACTIVE CELLS= 1471 NUMBER OF EQUATIONS=    1471
 SOLVING FOR ZETA FOR LAYER     2 ZONE     2

     635 UPPER PART EQS.       636 LOWER PART EQS.    BAND WIDTH + 1 =   31
 STRESS PERIOD=  3 TIMESTEP=179 LAYER=  2 ZONE=  2 ACTIVE CELLS= 1271 NUMBER OF EQUATIONS=    1271
 UBUDSV SAVING "      ZETASRF  1" ON UNIT 55 AT TIME STEP179, STRESS PERIOD    3

 HEAD WILL BE SAVED ON UNIT   51 AT END OF TIME STEP  179, STRESS PERIOD    3
 
 SOLVING FOR HEAD 
                                                   Max.-Head-Change                         Max.-Flux-Residual
  Residual-Control   Outer-Iter.   Inner-Iter.     Column Row Layer    Maximum-Head-Change  Column Row Layer    Maximum-Flux-Residual          L2-NORM 
          0                 1           1            36   31     2      -0.7472912264E-03      36   31    2        -0.5202522278E+00      0.7611809219E+00
          0                 2           1            34   32     2      -0.2048449716E-04      19   18    1         0.4145179589E-02      0.2312291820E-01
          0                 3           1            37   31     2      -0.1969651112E-04      37   31    2        -0.1155895976E-02      0.9218421558E-02
          0                 4           1            34   32     2      -0.8193687073E-05      39   29    2        -0.6594282031E-03      0.6057867751E-02

    ------------------------------------------------
       NWT REQUIRED            4 OUTER ITERATIONS 
       AND A TOTAL OF          4 INNER ITERATIONS.
    ------------------------------------------------

 OUTPUT CONTROL FOR STRESS PERIOD    3   TIME STEP  180
    PRINT BUDGET
    SAVE HEAD FOR ALL LAYERS
 SOLVING FOR ZETA FOR LAYER     1 ZONE     2

     736 UPPER PART EQS.       741 LOWER PART EQS.    BAND WIDTH + 1 =   29
 STRESS PERIOD=  3 TIMESTEP=180 LAYER=  1 ZONE=  2 ACTIVE CELLS= 1477 NUMBER OF EQUATIONS=    1477
 SOLVING FOR ZETA FOR LAYER     2 ZONE     2

     635 UPPER PART EQS.       636 LOWER PART EQS.    BAND WIDTH + 1 =   31
 STRESS PERIOD=  3 TIMESTEP=180 LAYER=  2 ZONE=  2 ACTIVE CELLS= 1271 NUMBER OF EQUATIONS=    1271
 UBUDSV SAVING "      ZETASRF  1" ON UNIT 55 AT TIME STEP180, STRESS PERIOD    3


                      VOLUMETRIC SWI ZONE BUDGET FOR ENTIRE MODEL
                     AT END OF TIME STEP  180 IN STRESS PERIOD   3
                                      ZONE     1
  -----------------------------------------------------------------------------------

        CUMULATIVE VOLUMES      L**3       RATES FOR THIS TIME STEP      L**3/T
        ------------------                 ------------------------

              IN:                                      IN:
              ---                                      ---
             BOUNDARIES =   141107232.0000            BOUNDARIES =        1680.0000
          CONSTANT HEAD =           0.0000         CONSTANT HEAD =           0.0000
            ZONE CHANGE =     1613842.8750           ZONE CHANGE =          73.6214
       ZONE CHG TIP/TOE =      439808.5938      ZONE CHG TIP/TOE =           1.9109
            ZONE MIXING =           0.0000           ZONE MIXING =           0.0000

               TOTAL IN =   143160880.0000              TOTAL IN =        1755.5323

             OUT:                                     OUT:
             ----                                     ----
             BOUNDARIES =   124505768.0000            BOUNDARIES =        1749.9160
          CONSTANT HEAD =           0.0000         CONSTANT HEAD =           0.0000
            ZONE CHANGE =    18937804.0000           ZONE CHANGE =           3.7821
       ZONE CHG TIP/TOE =      452597.6562      ZONE CHG TIP/TOE =           1.9109
            ZONE MIXING =           0.0000           ZONE MIXING =           0.0000

              TOTAL OUT =   143896160.0000             TOTAL OUT =        1755.6090

               IN - OUT =     -735280.0000              IN - OUT =      -7.6660E-02

    PERCENT DISCREPANCY =          -0.51     PERCENT DISCREPANCY =          -0.00



                      VOLUMETRIC SWI ZONE BUDGET FOR ENTIRE MODEL
                     AT END OF TIME STEP  180 IN STRESS PERIOD   3
                                      ZONE     2
  -----------------------------------------------------------------------------------

        CUMULATIVE VOLUMES      L**3       RATES FOR THIS TIME STEP      L**3/T
        ------------------                 ------------------------

              IN:                                      IN:
              ---                                      ---
             BOUNDARIES =     1223143.8750            BOUNDARIES =          94.8362
          CONSTANT HEAD =           0.0000         CONSTANT HEAD =           0.0000
            ZONE CHANGE =    18894150.0000           ZONE CHANGE =           3.7225
       ZONE CHG TIP/TOE =     1190895.0000      ZONE CHG TIP/TOE =           1.9109
            ZONE MIXING =           0.0000           ZONE MIXING =           0.0000

               TOTAL IN =    21308188.0000              TOTAL IN =         100.4696

             OUT:                                     OUT:
             ----                                     ----
             BOUNDARIES =    17818230.0000            BOUNDARIES =          25.0000
          CONSTANT HEAD =           0.0000         CONSTANT HEAD =           0.0000
            ZONE CHANGE =     2352139.0000           ZONE CHANGE =          73.6214
       ZONE CHG TIP/TOE =      396175.5625      ZONE CHG TIP/TOE =           1.8513
            ZONE MIXING =           0.0000           ZONE MIXING =           0.0000

              TOTAL OUT =    20566544.0000             TOTAL OUT =         100.4727

               IN - OUT =      741644.0000              IN - OUT =      -3.1281E-03

    PERCENT DISCREPANCY =           3.54     PERCENT DISCREPANCY =          -0.00


 HEAD WILL BE SAVED ON UNIT   51 AT END OF TIME STEP  180, STRESS PERIOD    3
1
  VOLUMETRIC BUDGET FOR ENTIRE MODEL AT END OF TIME STEP  180, STRESS PERIOD   3
  ------------------------------------------------------------------------------

     CUMULATIVE VOLUMES      L**3       RATES FOR THIS TIME STEP      L**3/T
     ------------------                 ------------------------

           IN:                                      IN:
           ---                                      ---
             STORAGE =           0.0000               STORAGE =           0.0000
       CONSTANT HEAD =           0.0000         CONSTANT HEAD =           0.0000
               WELLS =   141120128.0000                 WELLS =        1681.0000
     HEAD DEP BOUNDS =     1223143.8750       HEAD DEP BOUNDS =          94.8362
          SWIADDTOCH =           0.0000            SWIADDTOCH =           0.0000

            TOTAL IN =   142343264.0000              TOTAL IN =        1775.8362

          OUT:                                     OUT:
          ----                                     ----
             STORAGE =           0.0000               STORAGE =           0.0000
       CONSTANT HEAD =           0.0000         CONSTANT HEAD =           0.0000
               WELLS =     2901750.0000                 WELLS =         275.0000
     HEAD DEP BOUNDS =   139433200.0000       HEAD DEP BOUNDS =        1500.9160
          SWIADDTOCH =           0.0000            SWIADDTOCH =           0.0000

           TOTAL OUT =   142334944.0000             TOTAL OUT =        1775.9160

            IN - OUT =        8320.0000              IN - OUT =      -7.9834E-02

 PERCENT DISCREPANCY =           0.01     PERCENT DISCREPANCY =          -0.00






         TIME SUMMARY AT END OF TIME STEP  180 IN STRESS PERIOD    3
                    SECONDS     MINUTES      HOURS       DAYS        YEARS
                    -----------------------------------------------------------
   TIME STEP LENGTH 3.15360E+06  52560.      876.00      36.500     9.99316E-02
 STRESS PERIOD TIME 5.67648E+08 9.46080E+06 1.57680E+05  6570.0      17.988    
         TOTAL TIME 7.25328E+09 1.20888E+08 2.01480E+06  83950.      229.84    
1

 Run end date and time (yyyy/mm/dd hh:mm:ss): 2016/07/21 12:47:37
 Elapsed run time:  1 Minutes,  8.023 Seconds

