                                  MODFLOW-NWT-SWR1 
      U.S. GEOLOGICAL SURVEY MODULAR FINITE-DIFFERENCE GROUNDWATER-FLOW MODEL
                            VERSION 1.2.0 03/01/2020
                    BASED ON MODFLOW-2005 VERSION 1.12.00 02/03/2017

 LIST FILE: ./Ag_EP1a/output/Agwater1a_high.lst
                         UNIT    9

 OPENING ./Ag_EP1a/input/Agwater1.ba6
 FILE TYPE:BAS6   UNIT   75   STATUS:OLD    
 FORMAT:FORMATTED              ACCESS:SEQUENTIAL          

 OPENING ./Ag_EP1a/input/Agwater1.upw
 FILE TYPE:UPW   UNIT    7   STATUS:OLD    
 FORMAT:FORMATTED              ACCESS:SEQUENTIAL          

 OPENING ./Ag_EP1a/input/Agwater1.dis
 FILE TYPE:DIS   UNIT    8   STATUS:OLD    
 FORMAT:FORMATTED              ACCESS:SEQUENTIAL          

 OPENING ./Ag_EP1a/input/Agwater1.nwt
 FILE TYPE:NWT   UNIT   13   STATUS:OLD    
 FORMAT:FORMATTED              ACCESS:SEQUENTIAL          

 OPENING ./Ag_EP1a/input/Agwater1.oc
 FILE TYPE:OC   UNIT   14   STATUS:OLD    
 FORMAT:FORMATTED              ACCESS:SEQUENTIAL          

 OPENING ./Ag_EP1a/input/Agwater1.sfr
 FILE TYPE:SFR   UNIT   15   STATUS:OLD    
 FORMAT:FORMATTED              ACCESS:SEQUENTIAL          

 OPENING ./Ag_EP1a/input/Agwater1.ghb
 FILE TYPE:GHB   UNIT   17   STATUS:OLD    
 FORMAT:FORMATTED              ACCESS:SEQUENTIAL          

 OPENING ./Ag_EP1a/input/Agwater1.uzf
 FILE TYPE:UZF   UNIT   19   STATUS:OLD    
 FORMAT:FORMATTED              ACCESS:SEQUENTIAL          

 OPENING ./Ag_EP1a/input/Agwater1.gag
 FILE TYPE:GAGE   UNIT   32   STATUS:OLD    
 FORMAT:FORMATTED              ACCESS:SEQUENTIAL          

 OPENING ./Ag_EP1a/input/seg1_high.tab
 FILE TYPE:DATA   UNIT   55   STATUS:UNKNOWN
 FORMAT:FORMATTED              ACCESS:SEQUENTIAL          

 OPENING ./Ag_EP1a/input/seg9.tab
 FILE TYPE:DATA   UNIT   56   STATUS:UNKNOWN
 FORMAT:FORMATTED              ACCESS:SEQUENTIAL          

 OPENING ./Ag_EP1a/input/Agwater1.ag
 FILE TYPE:AG   UNIT   57   STATUS:OLD    
 FORMAT:FORMATTED              ACCESS:SEQUENTIAL          

 OPENING ./Ag_EP1a/output/Agwater1a_high.hed
 FILE TYPE:DATA   UNIT   62   STATUS:UNKNOWN
 FORMAT:FORMATTED              ACCESS:SEQUENTIAL          

 OPENING ./Ag_EP1a/output/Agwater1gw_high.ts5
 FILE TYPE:DATA   UNIT  105   STATUS:UNKNOWN
 FORMAT:FORMATTED              ACCESS:SEQUENTIAL          

 OPENING ./Ag_EP1a/output/Agwater1SW_high.ts9
 FILE TYPE:DATA   UNIT  107   STATUS:UNKNOWN
 FORMAT:FORMATTED              ACCESS:SEQUENTIAL          

 OPENING ./Ag_EP1a/output/Agwater1SW_ET_high.ts9
 FILE TYPE:DATA   UNIT  108   STATUS:UNKNOWN
 FORMAT:FORMATTED              ACCESS:SEQUENTIAL          

 OPENING ./Ag_EP1a/output/Agwater1_high.uzfot
 FILE TYPE:DATA(BINARY)   UNIT   61   STATUS:UNKNOWN
 FORMAT:BINARY                 ACCESS:SEQUENTIAL          

 OPENING ./Ag_EP1a/output/Agwater1cbc_high.unf
 FILE TYPE:DATA(BINARY)   UNIT  102   STATUS:UNKNOWN
 FORMAT:BINARY                 ACCESS:SEQUENTIAL          

 OPENING ./Ag_EP1a/output/Agwater1_high.uzf1
 FILE TYPE:DATA   UNIT   65   STATUS:UNKNOWN
 FORMAT:FORMATTED              ACCESS:SEQUENTIAL          

 OPENING ./Ag_EP1a/output/Agwater1_high.uzf2
 FILE TYPE:DATA   UNIT   66   STATUS:UNKNOWN
 FORMAT:FORMATTED              ACCESS:SEQUENTIAL          

 OPENING ./Ag_EP1a/output/Agwater1_high.uzf3
 FILE TYPE:DATA   UNIT   67   STATUS:UNKNOWN
 FORMAT:FORMATTED              ACCESS:SEQUENTIAL          

 OPENING ./Ag_EP1a/output/Agwater1_high.uzf4
 FILE TYPE:DATA   UNIT   68   STATUS:UNKNOWN
 FORMAT:FORMATTED              ACCESS:SEQUENTIAL          

 OPENING ./Ag_EP1a/output/Agwater1_high.flw
 FILE TYPE:DATA   UNIT   81   STATUS:UNKNOWN
 FORMAT:FORMATTED              ACCESS:SEQUENTIAL          

 OPENING ./Ag_EP1a/output/Agwater1_high.sg1
 FILE TYPE:DATA   UNIT   83   STATUS:UNKNOWN
 FORMAT:FORMATTED              ACCESS:SEQUENTIAL          

 OPENING ./Ag_EP1a/output/Agwater1_high.sg2
 FILE TYPE:DATA   UNIT   84   STATUS:UNKNOWN
 FORMAT:FORMATTED              ACCESS:SEQUENTIAL          

 OPENING ./Ag_EP1a/output/Agwater1_high.sg3
 FILE TYPE:DATA   UNIT   85   STATUS:UNKNOWN
 FORMAT:FORMATTED              ACCESS:SEQUENTIAL          

 OPENING ./Ag_EP1a/output/Agwater1_high.sg4
 FILE TYPE:DATA   UNIT   86   STATUS:UNKNOWN
 FORMAT:FORMATTED              ACCESS:SEQUENTIAL          

 OPENING ./Ag_EP1a/output/Agwater1_high.sg5
 FILE TYPE:DATA   UNIT   87   STATUS:UNKNOWN
 FORMAT:FORMATTED              ACCESS:SEQUENTIAL          

 OPENING ./Ag_EP1a/output/Agwater1_high.sg6
 FILE TYPE:DATA   UNIT   88   STATUS:UNKNOWN
 FORMAT:FORMATTED              ACCESS:SEQUENTIAL          

 OPENING ./Ag_EP1a/output/Agwater1_high.sg7
 FILE TYPE:DATA   UNIT   89   STATUS:UNKNOWN
 FORMAT:FORMATTED              ACCESS:SEQUENTIAL          

 OPENING ./Ag_EP1a/output/Agwater1_high.sg8
 FILE TYPE:DATA   UNIT   90   STATUS:UNKNOWN
 FORMAT:FORMATTED              ACCESS:SEQUENTIAL          

 OPENING ./Ag_EP1a/output/Agwater1_high.sg9
 FILE TYPE:DATA   UNIT   91   STATUS:UNKNOWN
 FORMAT:FORMATTED              ACCESS:SEQUENTIAL          

 BAS -- BASIC PACKAGE, VERSION 1.2.0, 3/01/2020 INPUT READ FROM UNIT   75
 
 MODFLOW was compiled using mixed precision
 Precision of REAL variables:           6
 Precision of DOUBLE PRECISION variables:          15

 DISCRETIZATION INPUT DATA READ FROM UNIT    8
 #Test problem 2-- Discretization input
 #Example problem using the UZF1 Package
    1 LAYERS        15 ROWS        10 COLUMNS
   49 STRESS PERIOD(S) IN SIMULATION
 MODEL TIME UNIT IS SECONDS
 MODEL LENGTH UNIT IS FEET
  Confining bed flag for each layer:
   0

                     DELR =   5000.00    

                     DELC =   5000.00    



           TOP ELEVATION OF LAYER 1
 READING ON UNIT    8 WITH FORMAT: (10F7.0)            

            1           2           3           4           5           6           7           8           9          10
 ........................................................................................................................
   1    1105.       1105.       0.000       0.000       0.000       0.000       0.000       0.000       0.000       0.000    
   2    1105.       1095.       1105.       0.000       0.000       1100.       1100.       1110.       0.000       0.000    
   3    0.000       1100.       1085.       1080.       1078.       1076.       1073.       1090.       0.000       0.000    
   4    1110.       1100.       1090.       1085.       1076.       1080.       1080.       1070.       1100.       0.000    
   5    1110.       1100.       1085.       1080.       1078.       1074.       1077.       1066.       1075.       1080.    
   6    1105.       1095.       1080.       1077.       1073.       1069.       1070.       1063.       1085.       1095.    
   7    1105.       1090.       1075.       1072.       1070.       1065.       1065.       1069.       1090.       0.000    
   8    0.000       1080.       1070.       1068.       1063.       1060.       1063.       1067.       1090.       0.000    
   9    0.000       1075.       1065.       1062.       1058.       1052.       1055.       1065.       1090.       0.000    
  10    0.000       1070.       1060.       1055.       1046.       1046.       1044.       1060.       1088.       1100.    
  11    0.000       1055.       1050.       1045.       1041.       1042.       1040.       1050.       1075.       0.000    
  12    1027.       1028.       1028.       1032.       1032.       1033.       1032.       1040.       1060.       0.000    
  13    997.0       1004.       1008.       1014.       1020.       1027.       1032.       1038.       1050.       0.000    
  14    0.000       1030.       1040.       1045.       1050.       1050.       1050.       1050.       1044.       0.000    
  15    0.000       0.000       1080.       1080.       1080.       1080.       0.000       0.000       0.000       0.000    



             MODEL LAYER BOTTOM EL. FOR LAYER   1
 READING ON UNIT    8 WITH FORMAT: (10F7.0)            

            1           2           3           4           5           6           7           8           9          10
 ........................................................................................................................
   1    1000.       1000.       0.000       0.000       0.000       0.000       0.000       0.000       0.000       0.000    
   2    1000.       900.0       900.0       0.000       0.000       950.0       950.0       950.0       0.000       0.000    
   3    0.000       850.0       670.0       680.0       680.0       770.0       770.0       890.0       0.000       0.000    
   4    925.0       850.0       650.0       650.0       650.0       680.0       740.0       850.0       950.0       0.000    
   5    925.0       800.0       650.0       600.0       600.0       600.0       650.0       720.0       850.0       950.0    
   6    925.0       800.0       650.0       600.0       550.0       600.0       650.0       720.0       850.0       970.0    
   7    925.0       800.0       650.0       600.0       550.0       600.0       650.0       720.0       950.0       0.000    
   8    0.000       850.0       700.0       650.0       570.0       600.0       700.0       850.0       950.0       0.000    
   9    0.000       850.0       700.0       650.0       540.0       580.0       700.0       850.0       950.0       0.000    
  10    0.000       850.0       700.0       630.0       530.0       580.0       650.0       800.0       900.0       950.0    
  11    0.000       850.0       700.0       620.0       580.0       620.0       700.0       800.0       900.0       0.000    
  12    900.0       830.0       710.0       640.0       600.0       650.0       700.0       800.0       900.0       0.000    
  13    900.0       810.0       750.0       700.0       650.0       700.0       750.0       800.0       900.0       0.000    
  14    0.000       950.0       850.0       850.0       850.0       850.0       850.0       850.0       850.0       0.000    
  15    0.000       0.000       950.0       950.0       950.0       950.0       0.000       0.000       0.000       0.000    


 STRESS PERIOD     LENGTH       TIME STEPS     MULTIPLIER FOR DELT    SS FLAG
 ----------------------------------------------------------------------------
        1         86400.00          1                    1.000         SS
        2         2630000.         30                    1.000         TR
        3         2630000.         30                    1.000         TR
        4         2630000.         30                    1.000         TR
        5         2630000.         30                    1.000         TR
        6         2630000.         30                    1.000         TR
        7         2630000.         30                    1.000         TR
        8         2630000.         30                    1.000         TR
        9         2630000.         30                    1.000         TR
       10         2630000.         30                    1.000         TR
       11         2630000.         30                    1.000         TR
       12         2630000.         30                    1.000         TR
       13         2630000.         30                    1.000         TR
       14         2630000.         30                    1.000         TR
       15         2630000.         30                    1.000         TR
       16         2630000.         30                    1.000         TR
       17         2630000.         30                    1.000         TR
       18         2630000.         30                    1.000         TR
       19         2630000.         30                    1.000         TR
       20         2630000.         30                    1.000         TR
       21         2630000.         30                    1.000         TR
       22         2630000.         30                    1.000         TR
       23         2630000.         30                    1.000         TR
       24         2630000.         30                    1.000         TR
       25         2630000.         30                    1.000         TR
       26         2630000.         30                    1.000         TR
       27         2630000.         30                    1.000         TR
       28         2630000.         30                    1.000         TR
       29         2630000.         30                    1.000         TR
       30         2630000.         30                    1.000         TR
       31         2630000.         30                    1.000         TR
       32         2630000.         30                    1.000         TR
       33         2630000.         30                    1.000         TR
       34         2630000.         30                    1.000         TR
       35         2630000.         30                    1.000         TR
       36         2630000.         30                    1.000         TR
       37         2630000.         30                    1.000         TR
       38         2630000.         30                    1.000         TR
       39         2630000.         30                    1.000         TR
       40         2630000.         30                    1.000         TR
       41         2630000.         30                    1.000         TR
       42         2630000.         30                    1.000         TR
       43         2630000.         30                    1.000         TR
       44         2630000.         30                    1.000         TR
       45         2630000.         30                    1.000         TR
       46         2630000.         30                    1.000         TR
       47         2630000.         30                    1.000         TR
       48         2630000.         30                    1.000         TR
       49         2630000.         30                    1.000         TR

 COMBINED STEADY-STATE AND TRANSIENT SIMULATION



 
 #Test Simulation 2-- Example problem using the UZF1 Package                     
 #Modified from example Problem 1 of SFR1 documentation report                   
 THE FREE FORMAT OPTION HAS BEEN SELECTED



                     BOUNDARY ARRAY FOR LAYER   1
 READING ON UNIT   75 WITH FORMAT: (20I4)              

                1           2           3           4           5           6           7           8           9          10
 ............................................................................................................................
   1            1           1           0           0           0           0           0           0           0           0
   2            1           1           1           0           0           1           1           1           0           0
   3            0           1           1           1           1           1           1           1           0           0
   4            1           1           1           1           1           1           1           1           1           0
   5            1           1           1           1           1           1           1           1           1           1
   6            1           1           1           1           1           1           1           1           1           1
   7            1           1           1           1           1           1           1           1           1           0
   8            0           1           1           1           1           1           1           1           1           0
   9            0           1           1           1           1           1           1           1           1           0
  10            0           1           1           1           1           1           1           1           1           1
  11            0           1           1           1           1           1           1           1           1           0
  12            1           1           1           1           1           1           1           1           1           0
  13            1           1           1           1           1           1           1           1           1           0
  14            0           1           1           1           1           1           1           1           1           0
  15            0           0           1           1           1           1           0           0           0           0

 AQUIFER HEAD WILL BE SET TO   6999.0     AT ALL NO-FLOW NODES (IBOUND=0).



                       INITIAL HEAD FOR LAYER   1
 READING ON UNIT   75 WITH FORMAT: (10F8.0)            

            1           2           3           4           5           6           7           8           9          10
 ........................................................................................................................
   1    1093.       1089.       6999.       6999.       6999.       6999.       6999.       6999.       6999.       6999.    
   2    1090.       1087.       1081.       6999.       6999.       1072.       1071.       1071.       6999.       6999.    
   3    6999.       1079.       1078.       1074.       1072.       1071.       1069.       1068.       6999.       6999.    
   4    1069.       1071.       1070.       1067.       1065.       1064.       1064.       1066.       1066.       6999.    
   5    1065.       1064.       1063.       1062.       1061.       1061.       1060.       1062.       1066.       1068.    
   6    1060.       1058.       1057.       1056.       1056.       1057.       1057.       1059.       1062.       1066.    
   7    1056.       1053.       1052.       1051.       1051.       1052.       1053.       1055.       1056.       6999.    
   8    6999.       1046.       1046.       1046.       1046.       1046.       1048.       1050.       1050.       6999.    
   9    6999.       1039.       1039.       1039.       1040.       1041.       1042.       1043.       1044.       6999.    
  10    6999.       1031.       1032.       1033.       1034.       1035.       1037.       1038.       1039.       1042.    
  11    6999.       1021.       1023.       1027.       1029.       1030.       1032.       1034.       1036.       6999.    
  12    1001.       1009.       1015.       1020.       1023.       1026.       1029.       1030.       1034.       6999.    
  13    994.5      1000.0       1007.       1013.       1019.       1024.       1029.       1034.       1036.       6999.    
  14    6999.       1004.       1009.       1014.       1019.       1024.       1029.       1035.       1039.       6999.    
  15    6999.       6999.       1012.       1015.       1019.       1022.       6999.       6999.       6999.       6999.    

 OUTPUT CONTROL IS SPECIFIED ONLY AT TIME STEPS FOR WHICH OUTPUT IS DESIRED
 HEADS WILL BE SAVED WITH FORMAT: (10F10.3)           
 SAVED HEADS WILL BE LABELED
 COMPACT CELL-BY-CELL BUDGET FILES WILL BE WRITTEN
 HEAD PRINT FORMAT CODE IS   4    DRAWDOWN PRINT FORMAT CODE IS   0
 HEADS WILL BE SAVED ON UNIT   62    DRAWDOWNS WILL BE SAVED ON UNIT    0
 # NWT Input File
 # Test Problem 3 for MODFLOW-NWT
 #HEADTOL  FLUXTOL MAXITEROUT THICKFACT LINMETH IPRNWT IBOTAV OPTIONS DBDREDUCE DBDINCREASE DBDGAMMA MOMFACT BACKFLAG MAXBACKITER BACKTOL BACKREDUCE

 NWT1 -- Newton Solver, VERSION 1.2.0, 3/01/2020
         INPUT READ FROM UNIT 13

 SPECIFIED OPTION:
 SOLVER INPUT VALUES ARE SPECIFIED BY USER
 ***XMD linear solver will be used***
 
   CONVERGENCE CRITERION OF   0.100000E-03 FOR HEAD SOLUTION
   AND A TOLERANCE OF   0.100000E+01 FOR FLOW SOLUTION AND 
   A MAXIMUM OF   500 OUTER ITERATIONS. 


   D-B-D REDUCTION FACTOR OF    0.970000E+00 AND 
   A D-B-D INCREASE FACTOR OF    0.100000E-04 AND 
   A D-B-D RELAXATION OF    0.000000E+00 AND 
   A MOMENTUM FACTOR OF    0.100000E+00 .


 ***BACKTRACKING IS INACTIVE***
 XMD -- LINEAR SOLUTION BY XMD PACKAGE VERSION 1.30
     BY MOTOMU IBARAKI, OHIO STATE UNIVERSITY, COLOMBUS, OH
                 INPUT READ FROM UNIT 13
 ACCELERATION METHOD                    (IACL) =         1
 NODE ORDERING FLAG                   (NORDER) =         0
 LEVEL OF FILL                         (LEVEL) =         7
 MAXIMUM NUMBER OF ORTHOGONALIZATIONS  (NORTH) =         7
 INDEX FOR USING REDUCED SYSTEM      (IREDSYS) =         1
 RESID. REDUCTION CONVERGE CRITERION  (RRCTOL) =  0.000000E+00
 INDEX FOR USING DROP TOLERANCE     (IDROPTOL) =         1
 DROP TOLERANCE VALUE                  (EPSRN) =  0.500000E-02
 CONVERGENCE CRITERIA OF           (HCLOSEXMD) =  0.100000E-03
 MAX. NUMBER OF LINEAR ITERATIONS  (MXITERXMD) =        50


 UPW1 -- UPSTREAM WEIGHTING FLOW PACKAGE, VERSION 1.2.0, 3/01/2020
         INPUT READ FROM UNIT  7

 #Layer-Property Flow Package input for test simulation 2
 CELL-BY-CELL FLOWS WILL BE SAVED ON UNIT  102
 No named parameters

   LAYER FLAGS:
 LAYER       LAYTYP          LAYAVG    CHANI           LAYVKA           LAYWET
 ---------------------------------------------------------------------------
    1             1             0     1.000E+00             0             0

   INTERPRETATION OF LAYER FLAGS:
                        INTERBLOCK     HORIZONTAL    DATA IN
         LAYER TYPE   TRANSMISSIVITY   ANISOTROPY   ARRAY VKA   WETTABILITY
 LAYER   (LAYTYP)        (LAYAVG)      (CHANI)     (LAYVKA)       (LAYWET)
 ---------------------------------------------------------------------------
    1   CONVERTIBLE      HARMONIC     1.000E+00    VERTICAL K  NON-WETTABLE



              HYD. COND. ALONG ROWS FOR LAYER   1
 READING ON UNIT    7 WITH FORMAT: (10F5.0)            

            1           2           3           4           5           6           7           8           9          10
 ........................................................................................................................
   1   2.0000E-03  2.0000E-03   0.000       0.000       0.000       0.000       0.000       0.000       0.000       0.000    
   2   4.0000E-04  2.0000E-03  2.0000E-03   0.000       0.000      4.0000E-04  4.0000E-04  4.0000E-04   0.000       0.000    
   3    0.000      4.0000E-04  2.0000E-03  2.0000E-03  4.0000E-04  4.0000E-04  4.0000E-04  4.0000E-04   0.000       0.000    
   4   4.0000E-04  4.0000E-04  4.0000E-04  2.0000E-03  2.0000E-03  2.0000E-03  4.0000E-04  4.0000E-04  4.0000E-04   0.000    
   5   4.0000E-04  4.0000E-04  4.0000E-04  2.0000E-03  2.0000E-03  2.0000E-03  2.0000E-03  2.0000E-03  2.0000E-03  2.0000E-03
   6   4.0000E-04  4.0000E-04  4.0000E-04  2.0000E-03  2.0000E-03  2.0000E-03  2.0000E-03  2.0000E-03  4.0000E-04  4.0000E-04
   7   4.0000E-04  4.0000E-04  4.0000E-04  2.0000E-03  2.0000E-03  2.0000E-03  2.0000E-03  2.0000E-03  4.0000E-04   0.000    
   8    0.000      4.0000E-04  4.0000E-04  2.0000E-03  2.0000E-03  2.0000E-03  2.0000E-03  4.0000E-04  4.0000E-04   0.000    
   9    0.000      4.0000E-04  4.0000E-04  2.0000E-03  2.0000E-03  2.0000E-03  2.0000E-03  4.0000E-04  4.0000E-04   0.000    
  10    0.000      4.0000E-04  4.0000E-04  2.0000E-03  2.0000E-03  2.0000E-03  2.0000E-03  4.0000E-04  4.0000E-04  4.0000E-04
  11    0.000      4.0000E-04  4.0000E-04  2.0000E-03  2.0000E-03  2.0000E-03  2.0000E-03  4.0000E-04  4.0000E-04   0.000    
  12   4.0000E-04  4.0000E-04  2.0000E-03  2.0000E-03  2.0000E-03  2.0000E-03  2.0000E-03  4.0000E-04  4.0000E-04   0.000    
  13   2.0000E-03  2.0000E-03  2.0000E-03  2.0000E-03  2.0000E-03  2.0000E-03  2.0000E-03  2.0000E-03  2.0000E-03   0.000    
  14    0.000      4.0000E-04  4.0000E-04  4.0000E-04  4.0000E-04  4.0000E-04  4.0000E-04  4.0000E-04  2.0000E-03   0.000    
  15    0.000       0.000      4.0000E-04  4.0000E-04  4.0000E-04  4.0000E-04   0.000       0.000       0.000       0.000    

      VERTICAL HYD. COND. =  1.000000E-06 FOR LAYER   1

         SPECIFIC STORAGE =  1.000000E-06 FOR LAYER   1



                     SPECIFIC YIELD FOR LAYER   1
 READING ON UNIT    7 WITH FORMAT: (10F5.0)            

            1           2           3           4           5           6           7           8           9          10
 ........................................................................................................................
   1   0.2000      0.2000       0.000       0.000       0.000       0.000       0.000       0.000       0.000       0.000    
   2   0.1000      0.2000      0.2000       0.000       0.000      0.1000      0.1000      0.1000       0.000       0.000    
   3    0.000      0.1000      0.2000      0.2000      0.1000      0.1000      0.1000      0.1000       0.000       0.000    
   4   0.1000      0.1000      0.1000      0.2000      0.2000      0.2000      0.1000      0.1000      0.1000       0.000    
   5   0.1000      0.1000      0.1000      0.2000      0.2000      0.2000      0.2000      0.2000      0.2000      0.2000    
   6   0.1000      0.1000      0.1000      0.2000      0.2000      0.2000      0.2000      0.2000      0.1000      0.1000    
   7   0.1000      0.1000      0.1000      0.2000      0.2000      0.2000      0.2000      0.2000      0.1000       0.000    
   8    0.000      0.1000      0.1000      0.2000      0.2000      0.2000      0.2000      0.1000      0.1000       0.000    
   9    0.000      0.1000      0.1000      0.2000      0.2000      0.2000      0.2000      0.1000      0.1000       0.000    
  10    0.000      0.1000      0.1000      0.2000      0.2000      0.2000      0.2000      0.1000      0.1000      0.1000    
  11    0.000      0.1000      0.1000      0.2000      0.2000      0.2000      0.2000      0.1000      0.1000       0.000    
  12   0.1000      0.1000      0.2000      0.2000      0.2000      0.2000      0.2000      0.1000      0.1000       0.000    
  13   0.2000      0.2000      0.2000      0.2000      0.2000      0.2000      0.2000      0.2000      0.2000       0.000    
  14    0.000      0.1000      0.1000      0.1000      0.1000      0.1000      0.1000      0.1000      0.2000       0.000    
  15    0.000       0.000      0.1000      0.1000      0.1000      0.1000       0.000       0.000       0.000       0.000    

 GHB -- GENERAL-HEAD BOUNDARY PACKAGE, VERSION 7, 5/2/2005
         INPUT READ FROM UNIT   17
 No named parameters
 MAXIMUM OF      2 ACTIVE GHB CELLS AT ONE TIME
 CELL-BY-CELL FLOWS WILL BE PRINTED WHEN ICBCFL NOT 0


     0 GHB parameters

 SFR7 -- STREAMFLOW ROUTING PACKAGE, VERSION 1.0.5, 2012-04-05
         INPUT READ FROM UNIT  15
 #SFR2 Package input for Testing supplimental pumping and irrigation
 No named parameters

 PROCESSING SFR2 OPTIONS
 
          2 Specified inflow files will be read with a maximum of       1446 row entries per file
 
Stream loss will be calculated as a factor of the streambed hydraulic conductivity. Multiplication factor is equal to     0.1000000015E+00

 END PROCESSING SFR2 OPTIONS
 


 NUMBER OF STREAM REACHES IS   38

 NUMBER OF STREAM SEGMENTS IS    9

 NUMBER OF STREAM PARAMETERS IS    0

 NUMBER OF STREAM SEGMENTS DEFINED USING PARAMETERS IS              0

 MAXIMUM ERROR FOR STREAM LEAKAGE RATES IS  1.00E-06

 CONSTANT FOR MANNINGS EQUATION IS  1.4860E+00



 STREAM OUTPUT WILL BE WRITTEN TO FILE ON UNIT   81


   STREAM NETWORK DESCRIPTION: 

   LAYER    ROW    COL   SEGMENT   REACH     LENGTH
                          NUMBER   NUMBER    IN CELL        
   --------------------------------------------------
      1      1      1       1        1    4.5000E+03
      1      2      2       1        2    7.0000E+03
      1      3      3       1        3    6.0000E+03
      1      3      4       1        4    5.5500E+03
      1      4      5       2        1    6.5000E+03
      1      5      6       2        2    5.0000E+03
      1      6      6       2        3    5.0000E+03
      1      7      6       2        4    5.0000E+03
      1      8      6       2        5    5.0000E+03
      1      3      5       3        1    5.0000E+03
      1      3      6       3        2    5.0000E+03
      1      3      7       3        3    4.5000E+03
      1      4      8       3        4    6.0000E+03
      1      5      8       3        5    5.0000E+03
      1      6      8       3        6    2.0000E+03
      1      5     10       4        1    2.5000E+03
      1      5      9       4        2    5.0000E+03
      1      6      8       4        3    3.5000E+03
      1      6      8       5        1    4.0000E+03
      1      7      7       5        2    5.0000E+03
      1      8      7       5        3    3.5000E+03
      1      8      6       5        4    2.5000E+03
      1      9      6       6        1    5.0000E+03
      1     10      7       6        2    5.0000E+03
      1     11      7       6        3    5.0000E+03
      1     12      7       6        4    5.0000E+03
      1     13      7       6        5    2.0000E+03
      1     14      9       7        1    5.0000E+03
      1     13      8       7        2    5.5000E+03
      1     13      7       7        3    5.0000E+03
      1     13      6       8        1    5.0000E+03
      1     13      5       8        2    5.0000E+03
      1     13      4       8        3    5.0000E+03
      1     13      3       8        4    5.0000E+03
      1     13      2       8        5    5.0000E+03
      1     13      1       8        6    3.0000E+03
      1      8      6       9        1    3.0000E+03
      1      8      5       9        2    3.0000E+03




 UZF1 -- UNSATURATED FLOW PACKAGE, VERSION 1.5, 09/10/2019
         INPUT READ FROM UNIT 19
 #UZF Package input for test simulation 2
 No named parameters

 PROCESSING UZF OPTIONS
 
 
 INITIAL WATER CONTENT (THTI) WILL BE 
READ FOR THE FIRST SS OR TR STRESS PERIOD
 
 
 RESIDUAL WATER CONTENT (THTR) WILL BE 
READ AND USED FOR THE FIRST TRANSIENT STRESS 
PERIOD
 
 
AIR ENTRY PRESSURE AND ROOT PRESSURE WILL BE 
SPECIFIED BY USER AND UZ ET WILL BE SIMULATED 
AS PRESSURE-HEAD DEPENDENT
 
 
INFILTRATION WILL BE REJECTED USING 
LAND SURFACE K
 
 
HYDRAULIC CONDUCTIVITY OF LAND SURFACE 
WILL BE READ
 

 END PROCESSING UZF OPTIONS



            AREAL EXTENT OF UZ FLOW
 READING ON UNIT   19 WITH FORMAT: (20I4)              

                1           2           3           4           5           6           7           8           9          10
 ............................................................................................................................
   1            1           1           0           0           0           0           0           0           0           0
   2            1           1           1           0           0           1           1           1           0           0
   3            0           1           1           1           1           1           1           1           0           0
   4            1           1           1           1           1           1           1           1           1           0
   5            1           1           1           1           1           1           1           1           1           1
   6            1           1           1           1           1           1           1           1           1           1
   7            1           1           1           1           1           1           1           1           1           0
   8            0           1           1           1           1           1           1           1           1           0
   9            0           1           1           1           1           1           1           1           1           0
  10            0           1           1           1           1           1           1           1           1           1
  11            0           1           1           1           1           1           1           1           1           0
  12            1           1           1           1           1           1           1           1           1           0
  13            1           1           1           1           1           1           1           1           1           0
  14            0           1           1           1           1           1           1           1           1           0
  15            0           0           1           1           1           1           0           0           0           0
 OPTION 1 -- RECHARGE IN UZF TO TOP LAYER ONLY 



            ROUTING OVERLAND RUNOFF
 READING ON UNIT   19 WITH FORMAT: (20I4)              

                1           2           3           4           5           6           7           8           9          10
 ............................................................................................................................
   1            1           1           0           0           0           0           0           0           0           0
   2            1           1           1           0           0           3           3           3           0           0
   3            0           1           1           1           3           3           3           3           0           0
   4            8           8           2           2           2           2           2           3           3           0
   5            8           8           8           8           2           2           2           3           4           4
   6            8           8           8           8           8           2           2           4           4           4
   7            8           8           8           8           8           2           5           5           5           0
   8            0           8           8           8           8           2           5           5           5           0
   9            0           8           8           8           8           6           6           6           6           0
  10            0           8           8           8           8           6           6           6           6           6
  11            0           8           8           8           8           8           6           6           7           0
  12            8           8           8           8           8           8           6           7           7           0
  13            8           8           8           8           8           8           7           7           7           0
  14            0           8           8           8           8           8           7           7           7           0
  15            0           0           8           8           8           8           0           0           0           0



               SATURATED VERTICAL K
 READING ON UNIT   19 WITH FORMAT: (10F4.0)            

            1           2           3           4           5           6           7           8           9          10
 ........................................................................................................................
   1   4.6000E-05  4.6000E-05   0.000       0.000       0.000       0.000       0.000       0.000       0.000       0.000    
   2   4.6000E-05  4.6000E-05  4.6000E-05   0.000       0.000      4.6000E-05  4.6000E-05  4.6000E-05   0.000       0.000    
   3    0.000      4.6000E-05  4.6000E-05  4.6000E-05  4.6000E-05  4.6000E-05  4.6000E-05  4.6000E-05   0.000       0.000    
   4   4.6000E-05  4.6000E-05  4.6000E-05  4.6000E-05  4.6000E-05  4.6000E-05  4.6000E-05  4.6000E-05  4.6000E-05   0.000    
   5   4.6000E-05  4.6000E-05  4.6000E-05  4.6000E-05  4.6000E-05  4.6000E-05  4.6000E-05  4.6000E-05  4.6000E-05  4.6000E-05
   6   4.6000E-05  4.6000E-05  4.6000E-05  4.6000E-05  4.6000E-05  4.6000E-05  4.6000E-05  4.6000E-05  4.6000E-05  4.6000E-05
   7   4.6000E-05  4.6000E-05  4.6000E-05  4.6000E-05  4.6000E-05  4.6000E-05  4.6000E-05  4.6000E-05  4.6000E-05   0.000    
   8    0.000      4.6000E-05  4.6000E-05  4.6000E-05  4.6000E-05  4.6000E-05  4.6000E-05  4.6000E-05  4.6000E-05   0.000    
   9    0.000      4.6000E-05  4.6000E-05  4.6000E-05  4.6000E-05  4.6000E-05  4.6000E-05  4.6000E-05  4.6000E-05   0.000    
  10    0.000      4.6000E-05  4.6000E-05  4.6000E-05  4.6000E-05  4.6000E-05  4.6000E-05  4.6000E-05  4.6000E-05  4.6000E-05
  11    0.000      4.6000E-05  4.6000E-05  4.6000E-05  4.6000E-05  4.6000E-05  4.6000E-05  4.6000E-05  4.6000E-05   0.000    
  12   4.6000E-05  4.6000E-05  4.6000E-05  4.6000E-05  4.6000E-05  4.6000E-05  4.6000E-05  4.6000E-05  4.6000E-05   0.000    
  13   4.6000E-05  4.6000E-05  4.6000E-05  4.6000E-05  4.6000E-05  4.6000E-05  4.6000E-05  4.6000E-05  4.6000E-05   0.000    
  14    0.000      4.6000E-05  4.6000E-05  4.6000E-05  4.6000E-05  4.6000E-05  4.6000E-05  4.6000E-05  4.6000E-05   0.000    
  15    0.000       0.000      4.6000E-05  4.6000E-05  4.6000E-05  4.6000E-05   0.000       0.000       0.000       0.000    



            LAND SURFACE VERTICAL K
 READING ON UNIT   19 WITH FORMAT: (10F4.0)            

            1           2           3           4           5           6           7           8           9          10
 ........................................................................................................................
   1   1.0000E-05  1.0000E-05   0.000       0.000       0.000       0.000       0.000       0.000       0.000       0.000    
   2   1.0000E-05  1.0000E-05  1.0000E-05   0.000       0.000      1.0000E-05  1.0000E-05  1.0000E-05   0.000       0.000    
   3    0.000      1.0000E-05  1.0000E-05  1.0000E-05  1.0000E-05  1.0000E-05  1.0000E-05  1.0000E-05   0.000       0.000    
   4   1.0000E-05  1.0000E-05  1.0000E-05  1.0000E-05  1.0000E-05  1.0000E-05  1.0000E-05  1.0000E-05  1.0000E-05   0.000    
   5   1.0000E-05  1.0000E-05  1.0000E-05  1.0000E-05  1.0000E-05  1.0000E-05  1.0000E-05  1.0000E-05  1.0000E-05  1.0000E-05
   6   1.0000E-05  1.0000E-05  1.0000E-05  1.0000E-05  1.0000E-05  1.0000E-05  1.0000E-05  1.0000E-05  1.0000E-05  1.0000E-05
   7   1.0000E-05  1.0000E-05  1.0000E-05  1.0000E-05  1.0000E-05  1.0000E-05  1.0000E-05  1.0000E-05  1.0000E-05   0.000    
   8    0.000      1.0000E-05  1.0000E-05  1.0000E-05  1.0000E-05  1.0000E-05  1.0000E-05  1.0000E-05  1.0000E-05   0.000    
   9    0.000      1.0000E-05  1.0000E-05  1.0000E-05  1.0000E-05  1.0000E-05  1.0000E-05  1.0000E-05  1.0000E-05   0.000    
  10    0.000      1.0000E-05  1.0000E-05  1.0000E-05  1.0000E-05  1.0000E-05  1.0000E-05  1.0000E-05  1.0000E-05  1.0000E-05
  11    0.000      1.0000E-05  1.0000E-05  1.0000E-05  1.0000E-05  1.0000E-05  1.0000E-05  1.0000E-05  1.0000E-05   0.000    
  12   1.0000E-05  1.0000E-05  1.0000E-05  1.0000E-05  1.0000E-05  1.0000E-05  1.0000E-05  1.0000E-05  1.0000E-05   0.000    
  13   1.0000E-05  1.0000E-05  1.0000E-05  1.0000E-05  1.0000E-05  1.0000E-05  1.0000E-05  1.0000E-05  1.0000E-05   0.000    
  14    0.000      1.0000E-05  1.0000E-05  1.0000E-05  1.0000E-05  1.0000E-05  1.0000E-05  1.0000E-05  1.0000E-05   0.000    
  15    0.000       0.000      1.0000E-05  1.0000E-05  1.0000E-05  1.0000E-05   0.000       0.000       0.000       0.000    

     BROOKS-COREY EPSILON =   7.50000    

  SATURATED WATER CONTENT =  0.380000    

   RESIDUAL WATER CONTENT =  0.200000    

    INITIAL WATER CONTENT =  0.200000    

UNSATURATED FLOW RESULTS WILL BE PRINTED TO SEPARATE FILES FOR SELECTED MODEL CELLS, AND TIME STEPS AS DEFINED BY OUTPUT CONTROL PACKAGE 

SELECTED MODEL CELLS ARE: 
 ROW NUMBER  COLUMN NUMBER  FORTRAN UNIT NUMBER  OUTPUT OPTION


       6             4                 65                 1
       6             5                 66                 2
       8             4                 67                 3
       0             0                 68                 4



   9 GAGING STATIONS WERE SPECIFIED.
     (Lakes are identified by a negative value of the Lake Number)
     RECORDS WILL BE WRITTEN TO SEPARATE OUTPUT FILES REPRESENTED BY FOLLOWING UNIT NUMBERS:

 Stream Gages:
  GAGE #   SEGMENT   REACH   UNIT   OUTTYPE
       1       1       4      83       1
       2       2       5      84       1
       3       3       5      85       1
       4       4       3      86       1
       5       5       4      87       4
       6       6       5      88       4
       7       7       3      89       4
       8       8       6      90       4
       9       9       1      91       5





 AG -- AG PACKAGE FOR NWT VERSION 1.1.3,  8/01/2017 INPUT READ FROM UNIT   57
 # AG options

 PROCESSING AG OPTIONS
 
 AGRICULTURAL DEMANDS WILL BE CALCULATED USING ET DEFICIT
 
 
 OPTION TO APPLY SURFACE WATER AS IRRIGATION IS ACTIVE. DIVERTED SURFACE WATER WILL BE APPLIED TO          1 CELLS/RHUS.
 
 
 OPTION TO PUMP SUPPLEMENTARY WATER FOR SURFACE DIVERSION SHORTFALL IS ACTIVATED.  A TOTAL OF             6 SUPPLEMENTAL WELLS ARE ACTIVE
 
 
 OPTION TO APPLY PUMPED WATER AS IRRIGATION IS ACTIVE. PUMPED IRRIGATION WATER WILL BE APPLIED TO          6 CELLS/RHUS.
 
 
 THE MAXIMUM NUMBER OF WELLS FOR SUPPLEMENTING DIVERSIONS OR APPLYING IRRIGATION IS          6 WELLS.
 
 
  UNFORMATTED CELL BY CELL RATES FOR SUP AND IRR WELLS WILL BE SAVED TO FILE UNIT NUMBER         -2
 
 
  UNFORMATTED CELL BY CELL RATES FOR SUP AND IRR WELLS WILL BE SAVED TO FILE UNIT NUMBER         -2
 
 
  UNFORMATTED CELL BY CELL RATES FOR SUP AND IRR WELLS WILL BE SAVED TO FILE UNIT NUMBER         -2
 
 
  UNFORMATTED CELL BY CELL RATES FOR SUP AND IRR WELLS WILL BE SAVED TO FILE UNIT NUMBER         -2
 
 
  GROUND WATER IRRIGATION, POTENTIAL AND ACTUAL ET WILL BE SAVED TO TIMES SERIES OUTPUT FILES.
 
 
  SURFACE WATER IRRIGATION, POTENTIAL AND ACTUAL ET WILL BE SAVED TO TIMES SERIES OUTPUT FILES.
 
 
  SURFACE WATER IRRIGATION, POTENTIAL AND ACTUAL ET WILL BE SAVED TO TIMES SERIES OUTPUT FILES.
 

 END PROCESSING AG OPTIONS
 # AG time series

 PROCESSING TIME SERIES

 FINISHED READING TIME SERIES
 A total number of          1 AG output time series files were activated for SURFACE WATER 
 A total number of          1 AG output time series files were activated for GROUNDWATER 
 A total number of          1 AG output time series files were activated for SURFACE WATER ET
 A total number of          0 AG output time series files were activated for GROUNDWATER ET
1
                            STRESS PERIOD NO.    1, LENGTH =   86400.00    
                            -----------------------------------------------

                              NUMBER OF TIME STEPS =     1

                               MULTIPLIER FOR DELT =     1.000

                            INITIAL TIME STEP SIZE =   86400.00    

 BOUND. NO. LAYER   ROW   COL     STAGE      CONDUCTANCE         
 ----------------------------------------------------------------
      1      1     13      1       988.0          0.3800E-01
      2      1     14      9       1045.          0.3800E-01

      2 GHB CELLS



 CLASSIFICATION & COUNT OF STREAM SEGMENTS BASED ON SOURCE OF INFLOW:

                HEADWATER     DIVERSION     RECEIVES TRIBUTARY FLOW
                ---------     ---------     -----------------------
                     3              2               4



                    INPUT DATA FOR EACH STREAM SEGMENT
 ---------------------------------------------------------------------------------------------

 SEGMENT    SEG.     INFLOW   OVERLAND   STREAM    STREAM   ICALC  OUTFLOW  DIVERSION PRIORITY
    NO.    LENGTH     RATE     RUNOFF      ET       PPT.    METH.  TO SEG.  FROM SEG.    NO.

      1  2.305E+04 2.500E+01 0.000E+00 0.000E+00 0.000E+00    4        2        0        0
      2  2.650E+04 0.000E+00 0.000E+00 0.000E+00 0.000E+00    1        6        0        0
      3  2.750E+04 2.000E+00 0.000E+00 0.000E+00 0.000E+00    0        5        1        0
      4  1.100E+04 1.000E+01 0.000E+00 0.000E+00 0.000E+00    1        5        0        0
      5  1.500E+04 0.000E+00 0.000E+00 0.000E+00 0.000E+00    3        6        0        0
      6  2.200E+04 0.000E+00 0.000E+00 0.000E+00 0.000E+00    1        8        0        0
      7  1.550E+04 1.500E+02 0.000E+00 0.000E+00 0.000E+00    2        8        0        0
      8  2.800E+04 0.000E+00 0.000E+00 0.000E+00 0.000E+00    2        0        0        0
      9  6.000E+03 0.000E+00 0.000E+00 0.000E+00 0.000E+00    1        0        2        0


         STREAMBED PROPERTIES AND STREAM DIMENSIONS

 SEGMENT     BED HYD. COND.      BED THICKNESS     ELEV.-TOP OF BED     WIDTH OF STREAM     DEPTH OF STREAM    STREAM ROUGHNESS
    No.     UPPER     LOWER     UPPER     LOWER     UPPER     LOWER     UPPER     LOWER     UPPER     LOWER   CHANNEL      BANK

     1  3.000E-05 3.000E-05 3.000E+00 3.000E+00 1.095E+03 1.075E+03
     2  3.000E-05 3.000E-05 3.000E+00 3.000E+00 1.075E+03 1.050E+03 1.200E+01 1.200E+01                     3.000E-02
     3  3.000E-05 3.000E-05 2.000E+00 2.000E+00 1.075E+03 1.060E+03 1.000E+01 6.000E+00 2.000E+00 1.000E+00
     4  3.000E-05 3.000E-05 3.000E+00 3.000E+00 1.080E+03 1.060E+03 1.000E+01 1.000E+01                     3.000E-02
     5  3.000E-05 3.000E-05 3.000E+00 3.000E+00 1.060E+03 1.045E+03
     6  3.000E-05 3.000E-05 3.000E+00 3.000E+00 1.045E+03 1.025E+03 1.200E+01 1.200E+01                     3.000E-02
     7  6.000E-05 6.000E-05 3.000E+00 3.000E+00 1.040E+03 1.025E+03                                         2.500E-02 4.500E-02
     8  6.000E-05 6.000E-05 3.000E+00 3.000E+00 1.025E+03 9.900E+02                                         2.500E-02 4.500E-02
     9  0.000E+00 0.000E+00 3.000E+00 3.000E+00 1.079E+03 1.078E+03 4.000E+00 4.000E+00                     3.000E-02

  EIGHT POINT CROSS-SECTION DATA FOR SEGMENTS WITH ICALC = 2
    X VALUES X VALUES START FROM LEFT SIDE LOOKING DOWNSTREAM

     SEGMENT NO.        X1        X2        X3        X4        X5        X6        X7        X8
            7      0.000E+00 1.000E+01 8.000E+01 1.000E+02 1.500E+02 1.700E+02 2.400E+02 2.500E+02
            8      0.000E+00 1.000E+01 8.000E+01 1.000E+02 1.500E+02 1.700E+02 2.400E+02 2.500E+02

    Z VALUES ARE RELATIVE TO STREAMBED ELEVATION

     SEGMENT NO.          Z1        Z2        Z3        Z4        Z5        Z6        Z7        Z8
            7      2.000E+01 1.300E+01 1.000E+01 2.000E+00 0.000E+00 1.000E+01 1.300E+01 2.000E+01
            8      2.500E+01 1.700E+01 1.300E+01 4.000E+00 0.000E+00 1.000E+01 1.600E+01 2.000E+01

 STREAMFLOW RELATION WITH DEPTH IS BASED ON EQUATION Q = CDPTH*(DEPTH)**FDPTH
 STREAMFLOW RELATION WITH WIDTH IS BASED ON EQUATION Q = AWDTH*(WIDTH)**BWDTH

 SEGMENT NO.      CDPTH     FDPTH    AWDTH     BWDTH

          5 3.000E-01 3.500E-01 3.800E+00 6.000E-01

 STREAMFLOW RELATION WITH DEPTH AND WIDTH IS BASED ON TABULATED VALUES

  SEGMENT NO.   STREAMFLOW       DEPTH       WIDTH

          1     5.0000E-01   2.5000E-01   3.0000E+00
          1     1.0000E+00   4.0000E-01   3.5000E+00
          1     2.0000E+00   5.5000E-01   4.2000E+00
          1     4.0000E+00   7.0000E-01   5.3000E+00
          1     7.0000E+00   8.0000E-01   7.0000E+00
          1     1.0000E+01   9.0000E-01   8.5000E+00
          1     2.0000E+01   1.1000E+00   1.2000E+01
          1     3.0000E+01   1.2500E+00   1.4000E+01
          1     5.0000E+01   1.4000E+00   1.7000E+01
          1     7.5000E+01   1.7000E+00   2.0000E+01
          1     1.0000E+02   1.8000E+00   2.2000E+01



TABULAR INFLOWS WERE READ FOR SEGMENT      1
FROM FILE UNIT NUMBER     55

          TIMES                    INFLOWS
         0.0000000000E+00     0.3750000000E+01
         0.8640000000E+05     0.1650000000E+02
         0.2760000000E+07     0.3150000000E+02
         0.5270000000E+07     0.5775000000E+02
         0.7950000000E+07     0.2100000000E+02
         0.1050000000E+08     0.7425000000E+02
         0.1320000000E+08     0.6225000000E+02
         0.1580000000E+08     0.5625000000E+02
         0.1850000000E+08     0.4575000000E+02
         0.2120000000E+08     0.3525000000E+02
         0.2380000000E+08     0.2625000000E+02
         0.2640000000E+08     0.1950000000E+02
         0.2900000000E+08     0.1725000000E+02
         0.3170000000E+08     0.1425000000E+02
         0.3440000000E+08     0.1575000000E+02
         0.3680000000E+08     0.7350000000E+02
         0.3950000000E+08     0.5625000000E+02
         0.4210000000E+08     0.4725000000E+02
         0.4480000000E+08     0.4350000000E+02
         0.4730000000E+08     0.4050000000E+02
         0.5000000000E+08     0.2775000000E+02
         0.5270000000E+08     0.1875000000E+02
         0.5530000000E+08     0.1650000000E+02
         0.5800000000E+08     0.1575000000E+02
         0.6060000000E+08     0.1500000000E+02
         0.6320000000E+08     0.1425000000E+02
         0.6330000000E+08     0.1650000000E+02
         0.6600000000E+08     0.3150000000E+02
         0.6850000000E+08     0.5775000000E+02
         0.7120000000E+08     0.2100000000E+02
         0.7370000000E+08     0.7425000000E+02
         0.7640000000E+08     0.6225000000E+02
         0.7900000000E+08     0.5625000000E+02
         0.8170000000E+08     0.4575000000E+02
         0.8440000000E+08     0.3525000000E+02
         0.8700000000E+08     0.2625000000E+02
         0.8960000000E+08     0.1950000000E+02
         0.9220000000E+08     0.1725000000E+02
         0.9490000000E+08     0.1425000000E+02
         0.9760000000E+08     0.1575000000E+02
         0.1000000000E+09     0.7350000000E+02
         0.1030000000E+09     0.5625000000E+02
         0.1050000000E+09     0.4725000000E+02
         0.1080000000E+09     0.4350000000E+02
         0.1110000000E+09     0.4050000000E+02
         0.1130000000E+09     0.2775000000E+02
         0.1160000000E+09     0.1875000000E+02
         0.1190000000E+09     0.1650000000E+02
         0.1210000000E+09     0.1575000000E+02
         0.1240000000E+09     0.1500000000E+02
         0.1260000000E+09     0.1425000000E+02
TABULAR INFLOWS WERE READ FOR SEGMENT      9
FROM FILE UNIT NUMBER     56

          TIMES                    INFLOWS
         0.0000000000E+00     0.1000000000E+03
         0.8640000000E+05     0.1000000000E+03
         0.1730000000E+06     0.1000000000E+03
         0.2590000000E+06     0.1000000000E+03
         0.3460000000E+06     0.1000000000E+03
         0.4320000000E+06     0.1000000000E+03
         0.5180000000E+06     0.1000000000E+03
         0.6050000000E+06     0.1000000000E+03
         0.6910000000E+06     0.1000000000E+03
         0.7780000000E+06     0.1000000000E+03
         0.8640000000E+06     0.1000000000E+03
         0.9500000000E+06     0.1000000000E+03
         0.1040000000E+07     0.1000000000E+03
         0.1120000000E+07     0.1000000000E+03
         0.1210000000E+07     0.1000000000E+03
         0.1300000000E+07     0.1000000000E+03
         0.1380000000E+07     0.1000000000E+03
         0.1470000000E+07     0.1000000000E+03
         0.1560000000E+07     0.1000000000E+03
         0.1640000000E+07     0.1000000000E+03
         0.1730000000E+07     0.1000000000E+03
         0.1810000000E+07     0.1000000000E+03
         0.1900000000E+07     0.1000000000E+03
         0.1990000000E+07     0.1000000000E+03
         0.2070000000E+07     0.1000000000E+03
         0.2160000000E+07     0.1000000000E+03
         0.2250000000E+07     0.1000000000E+03
         0.2330000000E+07     0.1000000000E+03
         0.2420000000E+07     0.1000000000E+03
         0.2510000000E+07     0.1000000000E+03
         0.2590000000E+07     0.1000000000E+03
         0.2680000000E+07     0.1000000000E+03
         0.2760000000E+07     0.1000000000E+03
         0.2850000000E+07     0.1000000000E+03
         0.2940000000E+07     0.1000000000E+03
         0.3020000000E+07     0.1000000000E+03
         0.3110000000E+07     0.1000000000E+03
         0.3200000000E+07     0.1000000000E+03
         0.3280000000E+07     0.1000000000E+03
         0.3370000000E+07     0.1000000000E+03
         0.3460000000E+07     0.1000000000E+03
         0.3540000000E+07     0.1000000000E+03
         0.3630000000E+07     0.1000000000E+03
         0.3720000000E+07     0.1000000000E+03
         0.3800000000E+07     0.1000000000E+03
         0.3890000000E+07     0.1000000000E+03
         0.3970000000E+07     0.1000000000E+03
         0.4060000000E+07     0.1000000000E+03
         0.4150000000E+07     0.1000000000E+03
         0.4230000000E+07     0.1000000000E+03
         0.4320000000E+07     0.1000000000E+03
         0.4410000000E+07     0.1000000000E+03
         0.4490000000E+07     0.1000000000E+03
         0.4580000000E+07     0.1000000000E+03
         0.4670000000E+07     0.1000000000E+03
         0.4750000000E+07     0.1000000000E+03
         0.4840000000E+07     0.1000000000E+03
         0.4920000000E+07     0.1000000000E+03
         0.5010000000E+07     0.1000000000E+03
         0.5100000000E+07     0.1000000000E+03
         0.5180000000E+07     0.1000000000E+03
         0.5270000000E+07     0.1000000000E+03
         0.5360000000E+07     0.1000000000E+03
         0.5440000000E+07     0.1000000000E+03
         0.5530000000E+07     0.1000000000E+03
         0.5620000000E+07     0.1000000000E+03
         0.5700000000E+07     0.1000000000E+03
         0.5790000000E+07     0.1000000000E+03
         0.5880000000E+07     0.1000000000E+03
         0.5960000000E+07     0.1000000000E+03
         0.6050000000E+07     0.1000000000E+03
         0.6130000000E+07     0.1000000000E+03
         0.6220000000E+07     0.1000000000E+03
         0.6310000000E+07     0.1000000000E+03
         0.6390000000E+07     0.1000000000E+03
         0.6480000000E+07     0.1000000000E+03
         0.6570000000E+07     0.1000000000E+03
         0.6650000000E+07     0.1000000000E+03
         0.6740000000E+07     0.1000000000E+03
         0.6830000000E+07     0.1000000000E+03
         0.6910000000E+07     0.1000000000E+03
         0.7000000000E+07     0.1000000000E+03
         0.7080000000E+07     0.1000000000E+03
         0.7170000000E+07     0.1000000000E+03
         0.7260000000E+07     0.1000000000E+03
         0.7340000000E+07     0.1000000000E+03
         0.7430000000E+07     0.1000000000E+03
         0.7520000000E+07     0.1000000000E+03
         0.7600000000E+07     0.1000000000E+03
         0.7690000000E+07     0.1000000000E+03
         0.7780000000E+07     0.1000000000E+03
         0.7860000000E+07     0.1000000000E+03
         0.7950000000E+07     0.1000000000E+03
         0.8040000000E+07     0.1000000000E+03
         0.8120000000E+07     0.1000000000E+03
         0.8210000000E+07     0.1000000000E+03
         0.8290000000E+07     0.1000000000E+03
         0.8380000000E+07     0.1000000000E+03
         0.8470000000E+07     0.1000000000E+03
         0.8550000000E+07     0.1000000000E+03
         0.8640000000E+07     0.1000000000E+03
         0.8730000000E+07     0.1000000000E+03
         0.8810000000E+07     0.1000000000E+03
         0.8900000000E+07     0.1000000000E+03
         0.8990000000E+07     0.1000000000E+03
         0.9070000000E+07     0.1000000000E+03
         0.9160000000E+07     0.1000000000E+03
         0.9240000000E+07     0.1000000000E+03
         0.9330000000E+07     0.1000000000E+03
         0.9420000000E+07     0.1000000000E+03
         0.9500000000E+07     0.1000000000E+03
         0.9590000000E+07     0.1000000000E+03
         0.9680000000E+07     0.1000000000E+03
         0.9760000000E+07     0.1000000000E+03
         0.9850000000E+07     0.1000000000E+03
         0.9940000000E+07     0.1000000000E+03
         0.1000000000E+08     0.1000000000E+03
         0.1010000000E+08     0.1000000000E+03
         0.1020000000E+08     0.1000000000E+03
         0.1030000000E+08     0.1000000000E+03
         0.1040000000E+08     0.1000000000E+03
         0.1050000000E+08     0.1000000000E+03
         0.1050000000E+08     0.1000000000E+03
         0.1060000000E+08     0.1000000000E+03
         0.1070000000E+08     0.1000000000E+03
         0.1080000000E+08     0.1000000000E+03
         0.1090000000E+08     0.1000000000E+03
         0.1100000000E+08     0.1000000000E+03
         0.1110000000E+08     0.1000000000E+03
         0.1110000000E+08     0.1000000000E+03
         0.1120000000E+08     0.1000000000E+03
         0.1130000000E+08     0.1000000000E+03
         0.1140000000E+08     0.1000000000E+03
         0.1150000000E+08     0.1000000000E+03
         0.1160000000E+08     0.1000000000E+03
         0.1170000000E+08     0.1000000000E+03
         0.1180000000E+08     0.1000000000E+03
         0.1180000000E+08     0.1000000000E+03
         0.1190000000E+08     0.1000000000E+03
         0.1200000000E+08     0.1000000000E+03
         0.1210000000E+08     0.1000000000E+03
         0.1220000000E+08     0.1000000000E+03
         0.1230000000E+08     0.1000000000E+03
         0.1240000000E+08     0.1000000000E+03
         0.1240000000E+08     0.1000000000E+03
         0.1250000000E+08     0.1000000000E+03
         0.1260000000E+08     0.1000000000E+03
         0.1270000000E+08     0.1000000000E+03
         0.1280000000E+08     0.1000000000E+03
         0.1290000000E+08     0.1000000000E+03
         0.1300000000E+08     0.1000000000E+03
         0.1300000000E+08     0.1000000000E+03
         0.1310000000E+08     0.1000000000E+03
         0.1320000000E+08     0.1000000000E+03
         0.1330000000E+08     0.1000000000E+03
         0.1340000000E+08     0.1000000000E+03
         0.1350000000E+08     0.1000000000E+03
         0.1360000000E+08     0.1000000000E+03
         0.1370000000E+08     0.1000000000E+03
         0.1370000000E+08     0.1000000000E+03
         0.1380000000E+08     0.1000000000E+03
         0.1390000000E+08     0.1000000000E+03
         0.1400000000E+08     0.1000000000E+03
         0.1410000000E+08     0.1000000000E+03
         0.1420000000E+08     0.1000000000E+03
         0.1430000000E+08     0.1000000000E+03
         0.1430000000E+08     0.1000000000E+03
         0.1440000000E+08     0.1000000000E+03
         0.1450000000E+08     0.1000000000E+03
         0.1460000000E+08     0.1000000000E+03
         0.1470000000E+08     0.1000000000E+03
         0.1480000000E+08     0.1000000000E+03
         0.1490000000E+08     0.1000000000E+03
         0.1490000000E+08     0.1000000000E+03
         0.1500000000E+08     0.1000000000E+03
         0.1510000000E+08     0.1000000000E+03
         0.1520000000E+08     0.1000000000E+03
         0.1530000000E+08     0.1000000000E+03
         0.1540000000E+08     0.1000000000E+03
         0.1550000000E+08     0.1000000000E+03
         0.1560000000E+08     0.1000000000E+03
         0.1560000000E+08     0.1000000000E+03
         0.1570000000E+08     0.1000000000E+03
         0.1580000000E+08     0.1000000000E+03
         0.1590000000E+08     0.1000000000E+03
         0.1600000000E+08     0.1000000000E+03
         0.1610000000E+08     0.1000000000E+03
         0.1620000000E+08     0.1000000000E+03
         0.1620000000E+08     0.1000000000E+03
         0.1630000000E+08     0.1000000000E+03
         0.1640000000E+08     0.1000000000E+03
         0.1650000000E+08     0.1000000000E+03
         0.1660000000E+08     0.1000000000E+03
         0.1670000000E+08     0.1000000000E+03
         0.1680000000E+08     0.1000000000E+03
         0.1680000000E+08     0.1000000000E+03
         0.1690000000E+08     0.1000000000E+03
         0.1700000000E+08     0.1000000000E+03
         0.1710000000E+08     0.1000000000E+03
         0.1720000000E+08     0.1000000000E+03
         0.1730000000E+08     0.1000000000E+03
         0.1740000000E+08     0.1000000000E+03
         0.1750000000E+08     0.1000000000E+03
         0.1750000000E+08     0.1000000000E+03
         0.1760000000E+08     0.1000000000E+03
         0.1770000000E+08     0.1000000000E+03
         0.1780000000E+08     0.1000000000E+03
         0.1790000000E+08     0.1000000000E+03
         0.1800000000E+08     0.1000000000E+03
         0.1810000000E+08     0.1000000000E+03
         0.1810000000E+08     0.1000000000E+03
         0.1820000000E+08     0.1000000000E+03
         0.1830000000E+08     0.1000000000E+03
         0.1840000000E+08     0.1000000000E+03
         0.1850000000E+08     0.1000000000E+03
         0.1860000000E+08     0.1000000000E+03
         0.1870000000E+08     0.1000000000E+03
         0.1870000000E+08     0.1000000000E+03
         0.1880000000E+08     0.1000000000E+03
         0.1890000000E+08     0.1000000000E+03
         0.1900000000E+08     0.1000000000E+03
         0.1910000000E+08     0.1000000000E+03
         0.1920000000E+08     0.1000000000E+03
         0.1930000000E+08     0.1000000000E+03
         0.1940000000E+08     0.1000000000E+03
         0.1940000000E+08     0.1000000000E+03
         0.1950000000E+08     0.1000000000E+03
         0.1960000000E+08     0.1000000000E+03
         0.1970000000E+08     0.1000000000E+03
         0.1980000000E+08     0.1000000000E+03
         0.1990000000E+08     0.1000000000E+03
         0.2000000000E+08     0.1000000000E+03
         0.2000000000E+08     0.1000000000E+03
         0.2010000000E+08     0.1000000000E+03
         0.2020000000E+08     0.1000000000E+03
         0.2030000000E+08     0.1000000000E+03
         0.2040000000E+08     0.1000000000E+03
         0.2050000000E+08     0.1000000000E+03
         0.2060000000E+08     0.1000000000E+03
         0.2070000000E+08     0.1000000000E+03
         0.2070000000E+08     0.1000000000E+03
         0.2080000000E+08     0.1000000000E+03
         0.2090000000E+08     0.1000000000E+03
         0.2100000000E+08     0.1000000000E+03
         0.2110000000E+08     0.1000000000E+03
         0.2120000000E+08     0.1000000000E+03
         0.2130000000E+08     0.1000000000E+03
         0.2130000000E+08     0.1000000000E+03
         0.2140000000E+08     0.1000000000E+03
         0.2150000000E+08     0.1000000000E+03
         0.2160000000E+08     0.1000000000E+03
         0.2170000000E+08     0.1000000000E+03
         0.2180000000E+08     0.1000000000E+03
         0.2190000000E+08     0.1000000000E+03
         0.2190000000E+08     0.1000000000E+03
         0.2200000000E+08     0.1000000000E+03
         0.2210000000E+08     0.1000000000E+03
         0.2220000000E+08     0.1000000000E+03
         0.2230000000E+08     0.1000000000E+03
         0.2240000000E+08     0.1000000000E+03
         0.2250000000E+08     0.1000000000E+03
         0.2260000000E+08     0.1000000000E+03
         0.2260000000E+08     0.1000000000E+03
         0.2270000000E+08     0.1000000000E+03
         0.2280000000E+08     0.1000000000E+03
         0.2290000000E+08     0.1000000000E+03
         0.2300000000E+08     0.1000000000E+03
         0.2310000000E+08     0.1000000000E+03
         0.2320000000E+08     0.1000000000E+03
         0.2320000000E+08     0.1000000000E+03
         0.2330000000E+08     0.1000000000E+03
         0.2340000000E+08     0.1000000000E+03
         0.2350000000E+08     0.1000000000E+03
         0.2360000000E+08     0.1000000000E+03
         0.2370000000E+08     0.1000000000E+03
         0.2380000000E+08     0.1000000000E+03
         0.2380000000E+08     0.1000000000E+03
         0.2390000000E+08     0.1000000000E+03
         0.2400000000E+08     0.1000000000E+03
         0.2410000000E+08     0.1000000000E+03
         0.2420000000E+08     0.1000000000E+03
         0.2430000000E+08     0.1000000000E+03
         0.2440000000E+08     0.1000000000E+03
         0.2450000000E+08     0.1000000000E+03
         0.2450000000E+08     0.1000000000E+03
         0.2460000000E+08     0.1000000000E+03
         0.2470000000E+08     0.1000000000E+03
         0.2480000000E+08     0.1000000000E+03
         0.2490000000E+08     0.1000000000E+03
         0.2500000000E+08     0.1000000000E+03
         0.2510000000E+08     0.1000000000E+03
         0.2510000000E+08     0.1000000000E+03
         0.2520000000E+08     0.1000000000E+03
         0.2530000000E+08     0.1000000000E+03
         0.2540000000E+08     0.1000000000E+03
         0.2550000000E+08     0.1000000000E+03
         0.2560000000E+08     0.1000000000E+03
         0.2570000000E+08     0.1000000000E+03
         0.2570000000E+08     0.1000000000E+03
         0.2580000000E+08     0.1000000000E+03
         0.2590000000E+08     0.1000000000E+03
         0.2600000000E+08     0.1000000000E+03
         0.2610000000E+08     0.1000000000E+03
         0.2620000000E+08     0.1000000000E+03
         0.2630000000E+08     0.1000000000E+03
         0.2640000000E+08     0.1000000000E+03
         0.2640000000E+08     0.1000000000E+03
         0.2650000000E+08     0.1000000000E+03
         0.2660000000E+08     0.1000000000E+03
         0.2670000000E+08     0.1000000000E+03
         0.2680000000E+08     0.1000000000E+03
         0.2690000000E+08     0.1000000000E+03
         0.2700000000E+08     0.1000000000E+03
         0.2700000000E+08     0.1000000000E+03
         0.2710000000E+08     0.1000000000E+03
         0.2720000000E+08     0.1000000000E+03
         0.2730000000E+08     0.1000000000E+03
         0.2740000000E+08     0.1000000000E+03
         0.2750000000E+08     0.1000000000E+03
         0.2760000000E+08     0.1000000000E+03
         0.2760000000E+08     0.1000000000E+03
         0.2770000000E+08     0.1000000000E+03
         0.2780000000E+08     0.1000000000E+03
         0.2790000000E+08     0.1000000000E+03
         0.2800000000E+08     0.1000000000E+03
         0.2810000000E+08     0.1000000000E+03
         0.2820000000E+08     0.1000000000E+03
         0.2830000000E+08     0.1000000000E+03
         0.2830000000E+08     0.1000000000E+03
         0.2840000000E+08     0.1000000000E+03
         0.2850000000E+08     0.1000000000E+03
         0.2860000000E+08     0.1000000000E+03
         0.2870000000E+08     0.1000000000E+03
         0.2880000000E+08     0.1000000000E+03
         0.2890000000E+08     0.1000000000E+03
         0.2890000000E+08     0.1000000000E+03
         0.2900000000E+08     0.1000000000E+03
         0.2910000000E+08     0.1000000000E+03
         0.2920000000E+08     0.1000000000E+03
         0.2930000000E+08     0.1000000000E+03
         0.2940000000E+08     0.1000000000E+03
         0.2950000000E+08     0.1000000000E+03
         0.2950000000E+08     0.1000000000E+03
         0.2960000000E+08     0.1000000000E+03
         0.2970000000E+08     0.1000000000E+03
         0.2980000000E+08     0.1000000000E+03
         0.2990000000E+08     0.1000000000E+03
         0.3000000000E+08     0.1000000000E+03
         0.3010000000E+08     0.1000000000E+03
         0.3020000000E+08     0.1000000000E+03
         0.3020000000E+08     0.1000000000E+03
         0.3030000000E+08     0.1000000000E+03
         0.3040000000E+08     0.1000000000E+03
         0.3050000000E+08     0.1000000000E+03
         0.3060000000E+08     0.1000000000E+03
         0.3070000000E+08     0.1000000000E+03
         0.3080000000E+08     0.1000000000E+03
         0.3080000000E+08     0.1000000000E+03
         0.3090000000E+08     0.1000000000E+03
         0.3100000000E+08     0.1000000000E+03
         0.3110000000E+08     0.1000000000E+03
         0.3120000000E+08     0.1000000000E+03
         0.3130000000E+08     0.1000000000E+03
         0.3140000000E+08     0.1000000000E+03
         0.3150000000E+08     0.1000000000E+03
         0.3150000000E+08     0.1000000000E+03
         0.3160000000E+08     0.1000000000E+03
         0.3170000000E+08     0.1000000000E+03
         0.3180000000E+08     0.1000000000E+03
         0.3190000000E+08     0.1000000000E+03
         0.3200000000E+08     0.1000000000E+03
         0.3210000000E+08     0.1000000000E+03
         0.3210000000E+08     0.1000000000E+03
         0.3220000000E+08     0.1000000000E+03
         0.3230000000E+08     0.1000000000E+03
         0.3240000000E+08     0.1000000000E+03
         0.3250000000E+08     0.1000000000E+03
         0.3260000000E+08     0.1000000000E+03
         0.3270000000E+08     0.1000000000E+03
         0.3270000000E+08     0.1000000000E+03
         0.3280000000E+08     0.1000000000E+03
         0.3290000000E+08     0.1000000000E+03
         0.3300000000E+08     0.1000000000E+03
         0.3310000000E+08     0.1000000000E+03
         0.3320000000E+08     0.1000000000E+03
         0.3330000000E+08     0.1000000000E+03
         0.3340000000E+08     0.1000000000E+03
         0.3340000000E+08     0.1000000000E+03
         0.3350000000E+08     0.1000000000E+03
         0.3360000000E+08     0.1000000000E+03
         0.3370000000E+08     0.1000000000E+03
         0.3380000000E+08     0.1000000000E+03
         0.3390000000E+08     0.1000000000E+03
         0.3400000000E+08     0.1000000000E+03
         0.3400000000E+08     0.1000000000E+03
         0.3410000000E+08     0.1000000000E+03
         0.3420000000E+08     0.1000000000E+03
         0.3430000000E+08     0.1000000000E+03
         0.3440000000E+08     0.1000000000E+03
         0.3450000000E+08     0.1000000000E+03
         0.3460000000E+08     0.1000000000E+03
         0.3460000000E+08     0.1000000000E+03
         0.3470000000E+08     0.1000000000E+03
         0.3480000000E+08     0.1000000000E+03
         0.3490000000E+08     0.1000000000E+03
         0.3500000000E+08     0.1000000000E+03
         0.3510000000E+08     0.1000000000E+03
         0.3520000000E+08     0.1000000000E+03
         0.3530000000E+08     0.1000000000E+03
         0.3530000000E+08     0.1000000000E+03
         0.3540000000E+08     0.1000000000E+03
         0.3550000000E+08     0.1000000000E+03
         0.3560000000E+08     0.1000000000E+03
         0.3570000000E+08     0.1000000000E+03
         0.3580000000E+08     0.1000000000E+03
         0.3590000000E+08     0.1000000000E+03
         0.3590000000E+08     0.1000000000E+03
         0.3600000000E+08     0.1000000000E+03
         0.3610000000E+08     0.1000000000E+03
         0.3620000000E+08     0.1000000000E+03
         0.3630000000E+08     0.1000000000E+03
         0.3640000000E+08     0.1000000000E+03
         0.3650000000E+08     0.1000000000E+03
         0.3650000000E+08     0.1000000000E+03
         0.3660000000E+08     0.1000000000E+03
         0.3670000000E+08     0.1000000000E+03
         0.3680000000E+08     0.1000000000E+03
         0.3690000000E+08     0.1000000000E+03
         0.3700000000E+08     0.1000000000E+03
         0.3710000000E+08     0.1000000000E+03
         0.3720000000E+08     0.1000000000E+03
         0.3720000000E+08     0.1000000000E+03
         0.3730000000E+08     0.1000000000E+03
         0.3740000000E+08     0.1000000000E+03
         0.3750000000E+08     0.1000000000E+03
         0.3760000000E+08     0.1000000000E+03
         0.3770000000E+08     0.1000000000E+03
         0.3780000000E+08     0.1000000000E+03
         0.3780000000E+08     0.1000000000E+03
         0.3790000000E+08     0.1000000000E+03
         0.3800000000E+08     0.1000000000E+03
         0.3810000000E+08     0.1000000000E+03
         0.3820000000E+08     0.1000000000E+03
         0.3830000000E+08     0.1000000000E+03
         0.3840000000E+08     0.1000000000E+03
         0.3840000000E+08     0.1000000000E+03
         0.3850000000E+08     0.1000000000E+03
         0.3860000000E+08     0.1000000000E+03
         0.3870000000E+08     0.1000000000E+03
         0.3880000000E+08     0.1000000000E+03
         0.3890000000E+08     0.1000000000E+03
         0.3900000000E+08     0.1000000000E+03
         0.3910000000E+08     0.1000000000E+03
         0.3910000000E+08     0.1000000000E+03
         0.3920000000E+08     0.1000000000E+03
         0.3930000000E+08     0.1000000000E+03
         0.3940000000E+08     0.1000000000E+03
         0.3950000000E+08     0.1000000000E+03
         0.3960000000E+08     0.1000000000E+03
         0.3970000000E+08     0.1000000000E+03
         0.3970000000E+08     0.1000000000E+03
         0.3980000000E+08     0.1000000000E+03
         0.3990000000E+08     0.1000000000E+03
         0.4000000000E+08     0.1000000000E+03
         0.4010000000E+08     0.1000000000E+03
         0.4020000000E+08     0.1000000000E+03
         0.4030000000E+08     0.1000000000E+03
         0.4030000000E+08     0.1000000000E+03
         0.4040000000E+08     0.1000000000E+03
         0.4050000000E+08     0.1000000000E+03
         0.4060000000E+08     0.1000000000E+03
         0.4070000000E+08     0.1000000000E+03
         0.4080000000E+08     0.1000000000E+03
         0.4090000000E+08     0.1000000000E+03
         0.4100000000E+08     0.1000000000E+03
         0.4100000000E+08     0.1000000000E+03
         0.4110000000E+08     0.1000000000E+03
         0.4120000000E+08     0.1000000000E+03
         0.4130000000E+08     0.1000000000E+03
         0.4140000000E+08     0.1000000000E+03
         0.4150000000E+08     0.1000000000E+03
         0.4160000000E+08     0.1000000000E+03
         0.4160000000E+08     0.1000000000E+03
         0.4170000000E+08     0.1000000000E+03
         0.4180000000E+08     0.1000000000E+03
         0.4190000000E+08     0.1000000000E+03
         0.4200000000E+08     0.1000000000E+03
         0.4210000000E+08     0.1000000000E+03
         0.4220000000E+08     0.1000000000E+03
         0.4230000000E+08     0.1000000000E+03
         0.4230000000E+08     0.1000000000E+03
         0.4240000000E+08     0.1000000000E+03
         0.4250000000E+08     0.1000000000E+03
         0.4260000000E+08     0.1000000000E+03
         0.4270000000E+08     0.1000000000E+03
         0.4280000000E+08     0.1000000000E+03
         0.4290000000E+08     0.1000000000E+03
         0.4290000000E+08     0.1000000000E+03
         0.4300000000E+08     0.1000000000E+03
         0.4310000000E+08     0.1000000000E+03
         0.4320000000E+08     0.1000000000E+03
         0.4330000000E+08     0.1000000000E+03
         0.4340000000E+08     0.1000000000E+03
         0.4350000000E+08     0.1000000000E+03
         0.4350000000E+08     0.1000000000E+03
         0.4360000000E+08     0.1000000000E+03
         0.4370000000E+08     0.1000000000E+03
         0.4380000000E+08     0.1000000000E+03
         0.4390000000E+08     0.1000000000E+03
         0.4400000000E+08     0.1000000000E+03
         0.4410000000E+08     0.1000000000E+03
         0.4420000000E+08     0.1000000000E+03
         0.4420000000E+08     0.1000000000E+03
         0.4430000000E+08     0.1000000000E+03
         0.4440000000E+08     0.1000000000E+03
         0.4450000000E+08     0.1000000000E+03
         0.4460000000E+08     0.1000000000E+03
         0.4470000000E+08     0.1000000000E+03
         0.4480000000E+08     0.1000000000E+03
         0.4480000000E+08     0.1000000000E+03
         0.4490000000E+08     0.1000000000E+03
         0.4500000000E+08     0.1000000000E+03
         0.4510000000E+08     0.1000000000E+03
         0.4520000000E+08     0.1000000000E+03
         0.4530000000E+08     0.1000000000E+03
         0.4540000000E+08     0.1000000000E+03
         0.4540000000E+08     0.1000000000E+03
         0.4550000000E+08     0.1000000000E+03
         0.4560000000E+08     0.1000000000E+03
         0.4570000000E+08     0.1000000000E+03
         0.4580000000E+08     0.1000000000E+03
         0.4590000000E+08     0.1000000000E+03
         0.4600000000E+08     0.1000000000E+03
         0.4610000000E+08     0.1000000000E+03
         0.4610000000E+08     0.1000000000E+03
         0.4620000000E+08     0.1000000000E+03
         0.4630000000E+08     0.1000000000E+03
         0.4640000000E+08     0.1000000000E+03
         0.4650000000E+08     0.1000000000E+03
         0.4660000000E+08     0.1000000000E+03
         0.4670000000E+08     0.1000000000E+03
         0.4670000000E+08     0.1000000000E+03
         0.4680000000E+08     0.1000000000E+03
         0.4690000000E+08     0.1000000000E+03
         0.4700000000E+08     0.1000000000E+03
         0.4710000000E+08     0.1000000000E+03
         0.4720000000E+08     0.1000000000E+03
         0.4730000000E+08     0.1000000000E+03
         0.4730000000E+08     0.1000000000E+03
         0.4740000000E+08     0.1000000000E+03
         0.4750000000E+08     0.1000000000E+03
         0.4760000000E+08     0.1000000000E+03
         0.4770000000E+08     0.1000000000E+03
         0.4780000000E+08     0.1000000000E+03
         0.4790000000E+08     0.1000000000E+03
         0.4800000000E+08     0.1000000000E+03
         0.4800000000E+08     0.1000000000E+03
         0.4810000000E+08     0.1000000000E+03
         0.4820000000E+08     0.1000000000E+03
         0.4830000000E+08     0.1000000000E+03
         0.4840000000E+08     0.1000000000E+03
         0.4850000000E+08     0.1000000000E+03
         0.4860000000E+08     0.1000000000E+03
         0.4860000000E+08     0.1000000000E+03
         0.4870000000E+08     0.1000000000E+03
         0.4880000000E+08     0.1000000000E+03
         0.4890000000E+08     0.1000000000E+03
         0.4900000000E+08     0.1000000000E+03
         0.4910000000E+08     0.1000000000E+03
         0.4920000000E+08     0.1000000000E+03
         0.4920000000E+08     0.1000000000E+03
         0.4930000000E+08     0.1000000000E+03
         0.4940000000E+08     0.1000000000E+03
         0.4950000000E+08     0.1000000000E+03
         0.4960000000E+08     0.1000000000E+03
         0.4970000000E+08     0.1000000000E+03
         0.4980000000E+08     0.1000000000E+03
         0.4990000000E+08     0.1000000000E+03
         0.4990000000E+08     0.1000000000E+03
         0.5000000000E+08     0.1000000000E+03
         0.5010000000E+08     0.1000000000E+03
         0.5020000000E+08     0.1000000000E+03
         0.5030000000E+08     0.1000000000E+03
         0.5040000000E+08     0.1000000000E+03
         0.5050000000E+08     0.1000000000E+03
         0.5050000000E+08     0.1000000000E+03
         0.5060000000E+08     0.1000000000E+03
         0.5070000000E+08     0.1000000000E+03
         0.5080000000E+08     0.1000000000E+03
         0.5090000000E+08     0.1000000000E+03
         0.5100000000E+08     0.1000000000E+03
         0.5110000000E+08     0.1000000000E+03
         0.5110000000E+08     0.1000000000E+03
         0.5120000000E+08     0.1000000000E+03
         0.5130000000E+08     0.1000000000E+03
         0.5140000000E+08     0.1000000000E+03
         0.5150000000E+08     0.1000000000E+03
         0.5160000000E+08     0.1000000000E+03
         0.5170000000E+08     0.1000000000E+03
         0.5180000000E+08     0.1000000000E+03
         0.5180000000E+08     0.1000000000E+03
         0.5190000000E+08     0.1000000000E+03
         0.5200000000E+08     0.1000000000E+03
         0.5210000000E+08     0.1000000000E+03
         0.5220000000E+08     0.1000000000E+03
         0.5230000000E+08     0.1000000000E+03
         0.5240000000E+08     0.1000000000E+03
         0.5240000000E+08     0.1000000000E+03
         0.5250000000E+08     0.1000000000E+03
         0.5260000000E+08     0.1000000000E+03
         0.5270000000E+08     0.1000000000E+03
         0.5280000000E+08     0.1000000000E+03
         0.5290000000E+08     0.1000000000E+03
         0.5300000000E+08     0.1000000000E+03
         0.5310000000E+08     0.1000000000E+03
         0.5310000000E+08     0.1000000000E+03
         0.5320000000E+08     0.1000000000E+03
         0.5330000000E+08     0.1000000000E+03
         0.5340000000E+08     0.1000000000E+03
         0.5350000000E+08     0.1000000000E+03
         0.5360000000E+08     0.1000000000E+03
         0.5370000000E+08     0.1000000000E+03
         0.5370000000E+08     0.1000000000E+03
         0.5380000000E+08     0.1000000000E+03
         0.5390000000E+08     0.1000000000E+03
         0.5400000000E+08     0.1000000000E+03
         0.5410000000E+08     0.1000000000E+03
         0.5420000000E+08     0.1000000000E+03
         0.5430000000E+08     0.1000000000E+03
         0.5430000000E+08     0.1000000000E+03
         0.5440000000E+08     0.1000000000E+03
         0.5450000000E+08     0.1000000000E+03
         0.5460000000E+08     0.1000000000E+03
         0.5470000000E+08     0.1000000000E+03
         0.5480000000E+08     0.1000000000E+03
         0.5490000000E+08     0.1000000000E+03
         0.5500000000E+08     0.1000000000E+03
         0.5500000000E+08     0.1000000000E+03
         0.5510000000E+08     0.1000000000E+03
         0.5520000000E+08     0.1000000000E+03
         0.5530000000E+08     0.1000000000E+03
         0.5540000000E+08     0.1000000000E+03
         0.5550000000E+08     0.1000000000E+03
         0.5560000000E+08     0.1000000000E+03
         0.5560000000E+08     0.1000000000E+03
         0.5570000000E+08     0.1000000000E+03
         0.5580000000E+08     0.1000000000E+03
         0.5590000000E+08     0.1000000000E+03
         0.5600000000E+08     0.1000000000E+03
         0.5610000000E+08     0.1000000000E+03
         0.5620000000E+08     0.1000000000E+03
         0.5620000000E+08     0.1000000000E+03
         0.5630000000E+08     0.1000000000E+03
         0.5640000000E+08     0.1000000000E+03
         0.5650000000E+08     0.1000000000E+03
         0.5660000000E+08     0.1000000000E+03
         0.5670000000E+08     0.1000000000E+03
         0.5680000000E+08     0.1000000000E+03
         0.5690000000E+08     0.1000000000E+03
         0.5690000000E+08     0.1000000000E+03
         0.5700000000E+08     0.1000000000E+03
         0.5710000000E+08     0.1000000000E+03
         0.5720000000E+08     0.1000000000E+03
         0.5730000000E+08     0.1000000000E+03
         0.5740000000E+08     0.1000000000E+03
         0.5750000000E+08     0.1000000000E+03
         0.5750000000E+08     0.1000000000E+03
         0.5760000000E+08     0.1000000000E+03
         0.5770000000E+08     0.1000000000E+03
         0.5780000000E+08     0.1000000000E+03
         0.5790000000E+08     0.1000000000E+03
         0.5800000000E+08     0.1000000000E+03
         0.5810000000E+08     0.1000000000E+03
         0.5810000000E+08     0.1000000000E+03
         0.5820000000E+08     0.1000000000E+03
         0.5830000000E+08     0.1000000000E+03
         0.5840000000E+08     0.1000000000E+03
         0.5850000000E+08     0.1000000000E+03
         0.5860000000E+08     0.1000000000E+03
         0.5870000000E+08     0.1000000000E+03
         0.5880000000E+08     0.1000000000E+03
         0.5880000000E+08     0.1000000000E+03
         0.5890000000E+08     0.1000000000E+03
         0.5900000000E+08     0.1000000000E+03
         0.5910000000E+08     0.1000000000E+03
         0.5920000000E+08     0.1000000000E+03
         0.5930000000E+08     0.1000000000E+03
         0.5940000000E+08     0.1000000000E+03
         0.5940000000E+08     0.1000000000E+03
         0.5950000000E+08     0.1000000000E+03
         0.5960000000E+08     0.1000000000E+03
         0.5970000000E+08     0.1000000000E+03
         0.5980000000E+08     0.1000000000E+03
         0.5990000000E+08     0.1000000000E+03
         0.6000000000E+08     0.1000000000E+03
         0.6000000000E+08     0.1000000000E+03
         0.6010000000E+08     0.1000000000E+03
         0.6020000000E+08     0.1000000000E+03
         0.6030000000E+08     0.1000000000E+03
         0.6040000000E+08     0.1000000000E+03
         0.6050000000E+08     0.1000000000E+03
         0.6060000000E+08     0.1000000000E+03
         0.6070000000E+08     0.1000000000E+03
         0.6070000000E+08     0.1000000000E+03
         0.6080000000E+08     0.1000000000E+03
         0.6090000000E+08     0.1000000000E+03
         0.6100000000E+08     0.1000000000E+03
         0.6110000000E+08     0.1000000000E+03
         0.6120000000E+08     0.1000000000E+03
         0.6130000000E+08     0.1000000000E+03
         0.6130000000E+08     0.1000000000E+03
         0.6140000000E+08     0.1000000000E+03
         0.6150000000E+08     0.1000000000E+03
         0.6160000000E+08     0.1000000000E+03
         0.6170000000E+08     0.1000000000E+03
         0.6180000000E+08     0.1000000000E+03
         0.6190000000E+08     0.1000000000E+03
         0.6190000000E+08     0.1000000000E+03
         0.6200000000E+08     0.1000000000E+03
         0.6210000000E+08     0.1000000000E+03
         0.6220000000E+08     0.1000000000E+03
         0.6230000000E+08     0.1000000000E+03
         0.6240000000E+08     0.1000000000E+03
         0.6250000000E+08     0.1000000000E+03
         0.6260000000E+08     0.1000000000E+03
         0.6260000000E+08     0.1000000000E+03
         0.6270000000E+08     0.1000000000E+03
         0.6280000000E+08     0.1000000000E+03
         0.6290000000E+08     0.1000000000E+03
         0.6300000000E+08     0.1000000000E+03
         0.6310000000E+08     0.1000000000E+03
         0.6320000000E+08     0.1000000000E+03
         0.6320000000E+08     0.1000000000E+03
         0.6330000000E+08     0.1000000000E+03
         0.6340000000E+08     0.1000000000E+03
         0.6350000000E+08     0.1000000000E+03
         0.6360000000E+08     0.1000000000E+03
         0.6370000000E+08     0.1000000000E+03
         0.6380000000E+08     0.1000000000E+03
         0.6390000000E+08     0.1000000000E+03
         0.6390000000E+08     0.1000000000E+03
         0.6400000000E+08     0.1000000000E+03
         0.6410000000E+08     0.1000000000E+03
         0.6420000000E+08     0.1000000000E+03
         0.6430000000E+08     0.1000000000E+03
         0.6440000000E+08     0.1000000000E+03
         0.6450000000E+08     0.1000000000E+03
         0.6450000000E+08     0.1000000000E+03
         0.6460000000E+08     0.1000000000E+03
         0.6470000000E+08     0.1000000000E+03
         0.6480000000E+08     0.1000000000E+03
         0.6490000000E+08     0.1000000000E+03
         0.6500000000E+08     0.1000000000E+03
         0.6510000000E+08     0.1000000000E+03
         0.6510000000E+08     0.1000000000E+03
         0.6520000000E+08     0.1000000000E+03
         0.6530000000E+08     0.1000000000E+03
         0.6540000000E+08     0.1000000000E+03
         0.6550000000E+08     0.1000000000E+03
         0.6560000000E+08     0.1000000000E+03
         0.6570000000E+08     0.1000000000E+03
         0.6580000000E+08     0.1000000000E+03
         0.6590000000E+08     0.1000000000E+03
         0.6600000000E+08     0.1000000000E+03
         0.6610000000E+08     0.1000000000E+03
         0.6610000000E+08     0.1000000000E+03
         0.6620000000E+08     0.1000000000E+03
         0.6630000000E+08     0.1000000000E+03
         0.6640000000E+08     0.1000000000E+03
         0.6650000000E+08     0.1000000000E+03
         0.6660000000E+08     0.1000000000E+03
         0.6670000000E+08     0.1000000000E+03
         0.6670000000E+08     0.1000000000E+03
         0.6680000000E+08     0.1000000000E+03
         0.6690000000E+08     0.1000000000E+03
         0.6700000000E+08     0.1000000000E+03
         0.6710000000E+08     0.1000000000E+03
         0.6720000000E+08     0.1000000000E+03
         0.6730000000E+08     0.1000000000E+03
         0.6730000000E+08     0.1000000000E+03
         0.6740000000E+08     0.1000000000E+03
         0.6750000000E+08     0.1000000000E+03
         0.6760000000E+08     0.1000000000E+03
         0.6770000000E+08     0.1000000000E+03
         0.6780000000E+08     0.1000000000E+03
         0.6790000000E+08     0.1000000000E+03
         0.6800000000E+08     0.1000000000E+03
         0.6810000000E+08     0.1000000000E+03
         0.6820000000E+08     0.1000000000E+03
         0.6830000000E+08     0.1000000000E+03
         0.6830000000E+08     0.1000000000E+03
         0.6840000000E+08     0.1000000000E+03
         0.6850000000E+08     0.1000000000E+03
         0.6860000000E+08     0.1000000000E+03
         0.6870000000E+08     0.1000000000E+03
         0.6880000000E+08     0.1000000000E+03
         0.6890000000E+08     0.1000000000E+03
         0.6890000000E+08     0.1000000000E+03
         0.6900000000E+08     0.1000000000E+03
         0.6910000000E+08     0.1000000000E+03
         0.6920000000E+08     0.1000000000E+03
         0.6930000000E+08     0.1000000000E+03
         0.6940000000E+08     0.1000000000E+03
         0.6950000000E+08     0.1000000000E+03
         0.6950000000E+08     0.1000000000E+03
         0.6960000000E+08     0.1000000000E+03
         0.6970000000E+08     0.1000000000E+03
         0.6980000000E+08     0.1000000000E+03
         0.6990000000E+08     0.1000000000E+03
         0.7000000000E+08     0.1000000000E+03
         0.7010000000E+08     0.1000000000E+03
         0.7020000000E+08     0.1000000000E+03
         0.7030000000E+08     0.1000000000E+03
         0.7040000000E+08     0.1000000000E+03
         0.7050000000E+08     0.1000000000E+03
         0.7050000000E+08     0.1000000000E+03
         0.7060000000E+08     0.1000000000E+03
         0.7070000000E+08     0.1000000000E+03
         0.7080000000E+08     0.1000000000E+03
         0.7090000000E+08     0.1000000000E+03
         0.7100000000E+08     0.1000000000E+03
         0.7110000000E+08     0.1000000000E+03
         0.7110000000E+08     0.1000000000E+03
         0.7120000000E+08     0.1000000000E+03
         0.7130000000E+08     0.1000000000E+03
         0.7140000000E+08     0.1000000000E+03
         0.7150000000E+08     0.1000000000E+03
         0.7160000000E+08     0.1000000000E+03
         0.7170000000E+08     0.1000000000E+03
         0.7170000000E+08     0.1000000000E+03
         0.7180000000E+08     0.1000000000E+03
         0.7190000000E+08     0.1000000000E+03
         0.7200000000E+08     0.1000000000E+03
         0.7210000000E+08     0.1000000000E+03
         0.7220000000E+08     0.1000000000E+03
         0.7230000000E+08     0.1000000000E+03
         0.7240000000E+08     0.1000000000E+03
         0.7250000000E+08     0.1000000000E+03
         0.7260000000E+08     0.1000000000E+03
         0.7270000000E+08     0.1000000000E+03
         0.7270000000E+08     0.1000000000E+03
         0.7280000000E+08     0.1000000000E+03
         0.7290000000E+08     0.1000000000E+03
         0.7300000000E+08     0.1000000000E+03
         0.7310000000E+08     0.1000000000E+03
         0.7320000000E+08     0.1000000000E+03
         0.7330000000E+08     0.1000000000E+03
         0.7330000000E+08     0.1000000000E+03
         0.7340000000E+08     0.1000000000E+03
         0.7350000000E+08     0.1000000000E+03
         0.7360000000E+08     0.1000000000E+03
         0.7370000000E+08     0.1000000000E+03
         0.7380000000E+08     0.1000000000E+03
         0.7390000000E+08     0.1000000000E+03
         0.7390000000E+08     0.1000000000E+03
         0.7400000000E+08     0.1000000000E+03
         0.7410000000E+08     0.1000000000E+03
         0.7420000000E+08     0.1000000000E+03
         0.7430000000E+08     0.1000000000E+03
         0.7440000000E+08     0.1000000000E+03
         0.7450000000E+08     0.1000000000E+03
         0.7460000000E+08     0.1000000000E+03
         0.7470000000E+08     0.1000000000E+03
         0.7480000000E+08     0.1000000000E+03
         0.7490000000E+08     0.1000000000E+03
         0.7490000000E+08     0.1000000000E+03
         0.7500000000E+08     0.1000000000E+03
         0.7510000000E+08     0.1000000000E+03
         0.7520000000E+08     0.1000000000E+03
         0.7530000000E+08     0.1000000000E+03
         0.7540000000E+08     0.1000000000E+03
         0.7550000000E+08     0.1000000000E+03
         0.7550000000E+08     0.1000000000E+03
         0.7560000000E+08     0.1000000000E+03
         0.7570000000E+08     0.1000000000E+03
         0.7580000000E+08     0.1000000000E+03
         0.7590000000E+08     0.1000000000E+03
         0.7600000000E+08     0.1000000000E+03
         0.7610000000E+08     0.1000000000E+03
         0.7610000000E+08     0.1000000000E+03
         0.7620000000E+08     0.1000000000E+03
         0.7630000000E+08     0.1000000000E+03
         0.7640000000E+08     0.1000000000E+03
         0.7650000000E+08     0.1000000000E+03
         0.7660000000E+08     0.1000000000E+03
         0.7670000000E+08     0.1000000000E+03
         0.7680000000E+08     0.1000000000E+03
         0.7690000000E+08     0.1000000000E+03
         0.7700000000E+08     0.1000000000E+03
         0.7710000000E+08     0.1000000000E+03
         0.7710000000E+08     0.1000000000E+03
         0.7720000000E+08     0.1000000000E+03
         0.7730000000E+08     0.1000000000E+03
         0.7740000000E+08     0.1000000000E+03
         0.7750000000E+08     0.1000000000E+03
         0.7760000000E+08     0.1000000000E+03
         0.7770000000E+08     0.1000000000E+03
         0.7770000000E+08     0.1000000000E+03
         0.7780000000E+08     0.1000000000E+03
         0.7790000000E+08     0.1000000000E+03
         0.7800000000E+08     0.1000000000E+03
         0.7810000000E+08     0.1000000000E+03
         0.7820000000E+08     0.1000000000E+03
         0.7830000000E+08     0.1000000000E+03
         0.7830000000E+08     0.1000000000E+03
         0.7840000000E+08     0.1000000000E+03
         0.7850000000E+08     0.1000000000E+03
         0.7860000000E+08     0.1000000000E+03
         0.7870000000E+08     0.1000000000E+03
         0.7880000000E+08     0.1000000000E+03
         0.7890000000E+08     0.1000000000E+03
         0.7900000000E+08     0.1000000000E+03
         0.7910000000E+08     0.1000000000E+03
         0.7920000000E+08     0.1000000000E+03
         0.7930000000E+08     0.1000000000E+03
         0.7930000000E+08     0.1000000000E+03
         0.7940000000E+08     0.1000000000E+03
         0.7950000000E+08     0.1000000000E+03
         0.7960000000E+08     0.1000000000E+03
         0.7970000000E+08     0.1000000000E+03
         0.7980000000E+08     0.1000000000E+03
         0.7990000000E+08     0.1000000000E+03
         0.7990000000E+08     0.1000000000E+03
         0.8000000000E+08     0.1000000000E+03
         0.8010000000E+08     0.1000000000E+03
         0.8020000000E+08     0.1000000000E+03
         0.8030000000E+08     0.1000000000E+03
         0.8040000000E+08     0.1000000000E+03
         0.8050000000E+08     0.1000000000E+03
         0.8050000000E+08     0.1000000000E+03
         0.8060000000E+08     0.1000000000E+03
         0.8070000000E+08     0.1000000000E+03
         0.8080000000E+08     0.1000000000E+03
         0.8090000000E+08     0.1000000000E+03
         0.8100000000E+08     0.1000000000E+03
         0.8110000000E+08     0.1000000000E+03
         0.8120000000E+08     0.1000000000E+03
         0.8130000000E+08     0.1000000000E+03
         0.8140000000E+08     0.1000000000E+03
         0.8150000000E+08     0.1000000000E+03
         0.8150000000E+08     0.1000000000E+03
         0.8160000000E+08     0.1000000000E+03
         0.8170000000E+08     0.1000000000E+03
         0.8180000000E+08     0.1000000000E+03
         0.8190000000E+08     0.1000000000E+03
         0.8200000000E+08     0.1000000000E+03
         0.8210000000E+08     0.1000000000E+03
         0.8210000000E+08     0.1000000000E+03
         0.8220000000E+08     0.1000000000E+03
         0.8230000000E+08     0.1000000000E+03
         0.8240000000E+08     0.1000000000E+03
         0.8250000000E+08     0.1000000000E+03
         0.8260000000E+08     0.1000000000E+03
         0.8270000000E+08     0.1000000000E+03
         0.8270000000E+08     0.1000000000E+03
         0.8280000000E+08     0.1000000000E+03
         0.8290000000E+08     0.1000000000E+03
         0.8300000000E+08     0.1000000000E+03
         0.8310000000E+08     0.1000000000E+03
         0.8320000000E+08     0.1000000000E+03
         0.8330000000E+08     0.1000000000E+03
         0.8340000000E+08     0.1000000000E+03
         0.8350000000E+08     0.1000000000E+03
         0.8360000000E+08     0.1000000000E+03
         0.8370000000E+08     0.1000000000E+03
         0.8370000000E+08     0.1000000000E+03
         0.8380000000E+08     0.1000000000E+03
         0.8390000000E+08     0.1000000000E+03
         0.8400000000E+08     0.1000000000E+03
         0.8410000000E+08     0.1000000000E+03
         0.8420000000E+08     0.1000000000E+03
         0.8430000000E+08     0.1000000000E+03
         0.8430000000E+08     0.1000000000E+03
         0.8440000000E+08     0.1000000000E+03
         0.8450000000E+08     0.1000000000E+03
         0.8460000000E+08     0.1000000000E+03
         0.8470000000E+08     0.1000000000E+03
         0.8480000000E+08     0.1000000000E+03
         0.8490000000E+08     0.1000000000E+03
         0.8490000000E+08     0.1000000000E+03
         0.8500000000E+08     0.1000000000E+03
         0.8510000000E+08     0.1000000000E+03
         0.8520000000E+08     0.1000000000E+03
         0.8530000000E+08     0.1000000000E+03
         0.8540000000E+08     0.1000000000E+03
         0.8550000000E+08     0.1000000000E+03
         0.8560000000E+08     0.1000000000E+03
         0.8570000000E+08     0.1000000000E+03
         0.8580000000E+08     0.1000000000E+03
         0.8590000000E+08     0.1000000000E+03
         0.8590000000E+08     0.1000000000E+03
         0.8600000000E+08     0.1000000000E+03
         0.8610000000E+08     0.1000000000E+03
         0.8620000000E+08     0.1000000000E+03
         0.8630000000E+08     0.1000000000E+03
         0.8640000000E+08     0.1000000000E+03
         0.8650000000E+08     0.1000000000E+03
         0.8650000000E+08     0.1000000000E+03
         0.8660000000E+08     0.1000000000E+03
         0.8670000000E+08     0.1000000000E+03
         0.8680000000E+08     0.1000000000E+03
         0.8690000000E+08     0.1000000000E+03
         0.8700000000E+08     0.1000000000E+03
         0.8710000000E+08     0.1000000000E+03
         0.8710000000E+08     0.1000000000E+03
         0.8720000000E+08     0.1000000000E+03
         0.8730000000E+08     0.1000000000E+03
         0.8740000000E+08     0.1000000000E+03
         0.8750000000E+08     0.1000000000E+03
         0.8760000000E+08     0.1000000000E+03
         0.8770000000E+08     0.1000000000E+03
         0.8780000000E+08     0.1000000000E+03
         0.8790000000E+08     0.1000000000E+03
         0.8800000000E+08     0.1000000000E+03
         0.8810000000E+08     0.1000000000E+03
         0.8810000000E+08     0.1000000000E+03
         0.8820000000E+08     0.1000000000E+03
         0.8830000000E+08     0.1000000000E+03
         0.8840000000E+08     0.1000000000E+03
         0.8850000000E+08     0.1000000000E+03
         0.8860000000E+08     0.1000000000E+03
         0.8870000000E+08     0.1000000000E+03
         0.8870000000E+08     0.1000000000E+03
         0.8880000000E+08     0.1000000000E+03
         0.8890000000E+08     0.1000000000E+03
         0.8900000000E+08     0.1000000000E+03
         0.8910000000E+08     0.1000000000E+03
         0.8920000000E+08     0.1000000000E+03
         0.8930000000E+08     0.1000000000E+03
         0.8930000000E+08     0.1000000000E+03
         0.8940000000E+08     0.1000000000E+03
         0.8950000000E+08     0.1000000000E+03
         0.8960000000E+08     0.1000000000E+03
         0.8970000000E+08     0.1000000000E+03
         0.8980000000E+08     0.1000000000E+03
         0.8990000000E+08     0.1000000000E+03
         0.9000000000E+08     0.1000000000E+03
         0.9010000000E+08     0.1000000000E+03
         0.9020000000E+08     0.1000000000E+03
         0.9030000000E+08     0.1000000000E+03
         0.9030000000E+08     0.1000000000E+03
         0.9040000000E+08     0.1000000000E+03
         0.9050000000E+08     0.1000000000E+03
         0.9060000000E+08     0.1000000000E+03
         0.9070000000E+08     0.1000000000E+03
         0.9080000000E+08     0.1000000000E+03
         0.9090000000E+08     0.1000000000E+03
         0.9090000000E+08     0.1000000000E+03
         0.9100000000E+08     0.1000000000E+03
         0.9110000000E+08     0.1000000000E+03
         0.9120000000E+08     0.1000000000E+03
         0.9130000000E+08     0.1000000000E+03
         0.9140000000E+08     0.1000000000E+03
         0.9150000000E+08     0.1000000000E+03
         0.9150000000E+08     0.1000000000E+03
         0.9160000000E+08     0.1000000000E+03
         0.9170000000E+08     0.1000000000E+03
         0.9180000000E+08     0.1000000000E+03
         0.9190000000E+08     0.1000000000E+03
         0.9200000000E+08     0.1000000000E+03
         0.9210000000E+08     0.1000000000E+03
         0.9220000000E+08     0.1000000000E+03
         0.9230000000E+08     0.1000000000E+03
         0.9240000000E+08     0.1000000000E+03
         0.9250000000E+08     0.1000000000E+03
         0.9250000000E+08     0.1000000000E+03
         0.9260000000E+08     0.1000000000E+03
         0.9270000000E+08     0.1000000000E+03
         0.9280000000E+08     0.1000000000E+03
         0.9290000000E+08     0.1000000000E+03
         0.9300000000E+08     0.1000000000E+03
         0.9310000000E+08     0.1000000000E+03
         0.9310000000E+08     0.1000000000E+03
         0.9320000000E+08     0.1000000000E+03
         0.9330000000E+08     0.1000000000E+03
         0.9340000000E+08     0.1000000000E+03
         0.9350000000E+08     0.1000000000E+03
         0.9360000000E+08     0.1000000000E+03
         0.9370000000E+08     0.1000000000E+03
         0.9370000000E+08     0.1000000000E+03
         0.9380000000E+08     0.1000000000E+03
         0.9390000000E+08     0.1000000000E+03
         0.9400000000E+08     0.1000000000E+03
         0.9410000000E+08     0.1000000000E+03
         0.9420000000E+08     0.1000000000E+03
         0.9430000000E+08     0.1000000000E+03
         0.9440000000E+08     0.1000000000E+03
         0.9450000000E+08     0.1000000000E+03
         0.9460000000E+08     0.1000000000E+03
         0.9470000000E+08     0.1000000000E+03
         0.9470000000E+08     0.1000000000E+03
         0.9480000000E+08     0.1000000000E+03
         0.9490000000E+08     0.1000000000E+03
         0.9500000000E+08     0.1000000000E+03
         0.9510000000E+08     0.1000000000E+03
         0.9520000000E+08     0.1000000000E+03
         0.9530000000E+08     0.1000000000E+03
         0.9530000000E+08     0.1000000000E+03
         0.9540000000E+08     0.1000000000E+03
         0.9550000000E+08     0.1000000000E+03
         0.9560000000E+08     0.1000000000E+03
         0.9570000000E+08     0.1000000000E+03
         0.9580000000E+08     0.1000000000E+03
         0.9590000000E+08     0.1000000000E+03
         0.9590000000E+08     0.1000000000E+03
         0.9600000000E+08     0.1000000000E+03
         0.9610000000E+08     0.1000000000E+03
         0.9620000000E+08     0.1000000000E+03
         0.9630000000E+08     0.1000000000E+03
         0.9640000000E+08     0.1000000000E+03
         0.9650000000E+08     0.1000000000E+03
         0.9660000000E+08     0.1000000000E+03
         0.9670000000E+08     0.1000000000E+03
         0.9680000000E+08     0.1000000000E+03
         0.9690000000E+08     0.1000000000E+03
         0.9690000000E+08     0.1000000000E+03
         0.9700000000E+08     0.1000000000E+03
         0.9710000000E+08     0.1000000000E+03
         0.9720000000E+08     0.1000000000E+03
         0.9730000000E+08     0.1000000000E+03
         0.9740000000E+08     0.1000000000E+03
         0.9750000000E+08     0.1000000000E+03
         0.9750000000E+08     0.1000000000E+03
         0.9760000000E+08     0.1000000000E+03
         0.9770000000E+08     0.1000000000E+03
         0.9780000000E+08     0.1000000000E+03
         0.9790000000E+08     0.1000000000E+03
         0.9800000000E+08     0.1000000000E+03
         0.9810000000E+08     0.1000000000E+03
         0.9810000000E+08     0.1000000000E+03
         0.9820000000E+08     0.1000000000E+03
         0.9830000000E+08     0.1000000000E+03
         0.9840000000E+08     0.1000000000E+03
         0.9850000000E+08     0.1000000000E+03
         0.9860000000E+08     0.1000000000E+03
         0.9870000000E+08     0.1000000000E+03
         0.9880000000E+08     0.1000000000E+03
         0.9890000000E+08     0.1000000000E+03
         0.9900000000E+08     0.1000000000E+03
         0.9910000000E+08     0.1000000000E+03
         0.9910000000E+08     0.1000000000E+03
         0.9920000000E+08     0.1000000000E+03
         0.9930000000E+08     0.1000000000E+03
         0.9940000000E+08     0.1000000000E+03
         0.9950000000E+08     0.1000000000E+03
         0.9960000000E+08     0.1000000000E+03
         0.9970000000E+08     0.1000000000E+03
         0.9970000000E+08     0.1000000000E+03
         0.9980000000E+08     0.1000000000E+03
         0.9990000000E+08     0.1000000000E+03
         0.1000000000E+09     0.1000000000E+03
         0.1001000000E+09     0.1000000000E+03
         0.1002000000E+09     0.1000000000E+03
         0.1003000000E+09     0.1000000000E+03
         0.1003000000E+09     0.1000000000E+03
         0.1004000000E+09     0.1000000000E+03
         0.1005000000E+09     0.1000000000E+03
         0.1006000000E+09     0.1000000000E+03
         0.1007000000E+09     0.1000000000E+03
         0.1008000000E+09     0.1000000000E+03
         0.1009000000E+09     0.1000000000E+03
         0.1010000000E+09     0.1000000000E+03
         0.1011000000E+09     0.1000000000E+03
         0.1012000000E+09     0.1000000000E+03
         0.1013000000E+09     0.1000000000E+03
         0.1013000000E+09     0.1000000000E+03
         0.1014000000E+09     0.1000000000E+03
         0.1015000000E+09     0.1000000000E+03
         0.1016000000E+09     0.1000000000E+03
         0.1017000000E+09     0.1000000000E+03
         0.1018000000E+09     0.1000000000E+03
         0.1019000000E+09     0.1000000000E+03
         0.1019000000E+09     0.1000000000E+03
         0.1020000000E+09     0.1000000000E+03
         0.1021000000E+09     0.1000000000E+03
         0.1022000000E+09     0.1000000000E+03
         0.1023000000E+09     0.1000000000E+03
         0.1024000000E+09     0.1000000000E+03
         0.1025000000E+09     0.1000000000E+03
         0.1025000000E+09     0.1000000000E+03
         0.1026000000E+09     0.1000000000E+03
         0.1027000000E+09     0.1000000000E+03
         0.1028000000E+09     0.1000000000E+03
         0.1029000000E+09     0.1000000000E+03
         0.1030000000E+09     0.1000000000E+03
         0.1031000000E+09     0.1000000000E+03
         0.1032000000E+09     0.1000000000E+03
         0.1033000000E+09     0.1000000000E+03
         0.1034000000E+09     0.1000000000E+03
         0.1035000000E+09     0.1000000000E+03
         0.1035000000E+09     0.1000000000E+03
         0.1036000000E+09     0.1000000000E+03
         0.1037000000E+09     0.1000000000E+03
         0.1038000000E+09     0.1000000000E+03
         0.1039000000E+09     0.1000000000E+03
         0.1040000000E+09     0.1000000000E+03
         0.1041000000E+09     0.1000000000E+03
         0.1041000000E+09     0.1000000000E+03
         0.1042000000E+09     0.1000000000E+03
         0.1043000000E+09     0.1000000000E+03
         0.1044000000E+09     0.1000000000E+03
         0.1045000000E+09     0.1000000000E+03
         0.1046000000E+09     0.1000000000E+03
         0.1047000000E+09     0.1000000000E+03
         0.1047000000E+09     0.1000000000E+03
         0.1048000000E+09     0.1000000000E+03
         0.1049000000E+09     0.1000000000E+03
         0.1050000000E+09     0.1000000000E+03
         0.1051000000E+09     0.1000000000E+03
         0.1052000000E+09     0.1000000000E+03
         0.1053000000E+09     0.1000000000E+03
         0.1054000000E+09     0.1000000000E+03
         0.1055000000E+09     0.1000000000E+03
         0.1056000000E+09     0.1000000000E+03
         0.1057000000E+09     0.1000000000E+03
         0.1057000000E+09     0.1000000000E+03
         0.1058000000E+09     0.1000000000E+03
         0.1059000000E+09     0.1000000000E+03
         0.1060000000E+09     0.1000000000E+03
         0.1061000000E+09     0.1000000000E+03
         0.1062000000E+09     0.1000000000E+03
         0.1063000000E+09     0.1000000000E+03
         0.1063000000E+09     0.1000000000E+03
         0.1064000000E+09     0.1000000000E+03
         0.1065000000E+09     0.1000000000E+03
         0.1066000000E+09     0.1000000000E+03
         0.1067000000E+09     0.1000000000E+03
         0.1068000000E+09     0.1000000000E+03
         0.1069000000E+09     0.1000000000E+03
         0.1069000000E+09     0.1000000000E+03
         0.1070000000E+09     0.1000000000E+03
         0.1071000000E+09     0.1000000000E+03
         0.1072000000E+09     0.1000000000E+03
         0.1073000000E+09     0.1000000000E+03
         0.1074000000E+09     0.1000000000E+03
         0.1075000000E+09     0.1000000000E+03
         0.1076000000E+09     0.1000000000E+03
         0.1077000000E+09     0.1000000000E+03
         0.1078000000E+09     0.1000000000E+03
         0.1079000000E+09     0.1000000000E+03
         0.1079000000E+09     0.1000000000E+03
         0.1080000000E+09     0.1000000000E+03
         0.1081000000E+09     0.1000000000E+03
         0.1082000000E+09     0.1000000000E+03
         0.1083000000E+09     0.1000000000E+03
         0.1084000000E+09     0.1000000000E+03
         0.1085000000E+09     0.1000000000E+03
         0.1085000000E+09     0.1000000000E+03
         0.1086000000E+09     0.1000000000E+03
         0.1087000000E+09     0.1000000000E+03
         0.1088000000E+09     0.1000000000E+03
         0.1089000000E+09     0.1000000000E+03
         0.1090000000E+09     0.1000000000E+03
         0.1091000000E+09     0.1000000000E+03
         0.1091000000E+09     0.1000000000E+03
         0.1092000000E+09     0.1000000000E+03
         0.1093000000E+09     0.1000000000E+03
         0.1094000000E+09     0.1000000000E+03
         0.1095000000E+09     0.1000000000E+03
         0.1096000000E+09     0.1000000000E+03
         0.1097000000E+09     0.1000000000E+03
         0.1098000000E+09     0.1000000000E+03
         0.1099000000E+09     0.1000000000E+03
         0.1100000000E+09     0.1000000000E+03
         0.1101000000E+09     0.1000000000E+03
         0.1101000000E+09     0.1000000000E+03
         0.1102000000E+09     0.1000000000E+03
         0.1103000000E+09     0.1000000000E+03
         0.1104000000E+09     0.1000000000E+03
         0.1105000000E+09     0.1000000000E+03
         0.1106000000E+09     0.1000000000E+03
         0.1107000000E+09     0.1000000000E+03
         0.1107000000E+09     0.1000000000E+03
         0.1108000000E+09     0.1000000000E+03
         0.1109000000E+09     0.1000000000E+03
         0.1110000000E+09     0.1000000000E+03
         0.1111000000E+09     0.1000000000E+03
         0.1112000000E+09     0.1000000000E+03
         0.1113000000E+09     0.1000000000E+03
         0.1113000000E+09     0.1000000000E+03
         0.1114000000E+09     0.1000000000E+03
         0.1115000000E+09     0.1000000000E+03
         0.1116000000E+09     0.1000000000E+03
         0.1117000000E+09     0.1000000000E+03
         0.1118000000E+09     0.1000000000E+03
         0.1119000000E+09     0.1000000000E+03
         0.1120000000E+09     0.1000000000E+03
         0.1121000000E+09     0.1000000000E+03
         0.1122000000E+09     0.1000000000E+03
         0.1123000000E+09     0.1000000000E+03
         0.1123000000E+09     0.1000000000E+03
         0.1124000000E+09     0.1000000000E+03
         0.1125000000E+09     0.1000000000E+03
         0.1126000000E+09     0.1000000000E+03
         0.1127000000E+09     0.1000000000E+03
         0.1128000000E+09     0.1000000000E+03
         0.1129000000E+09     0.1000000000E+03
         0.1129000000E+09     0.1000000000E+03
         0.1130000000E+09     0.1000000000E+03
         0.1131000000E+09     0.1000000000E+03
         0.1132000000E+09     0.1000000000E+03
         0.1133000000E+09     0.1000000000E+03
         0.1134000000E+09     0.1000000000E+03
         0.1135000000E+09     0.1000000000E+03
         0.1135000000E+09     0.1000000000E+03
         0.1136000000E+09     0.1000000000E+03
         0.1137000000E+09     0.1000000000E+03
         0.1138000000E+09     0.1000000000E+03
         0.1139000000E+09     0.1000000000E+03
         0.1140000000E+09     0.1000000000E+03
         0.1141000000E+09     0.1000000000E+03
         0.1142000000E+09     0.1000000000E+03
         0.1143000000E+09     0.1000000000E+03
         0.1144000000E+09     0.1000000000E+03
         0.1145000000E+09     0.1000000000E+03
         0.1145000000E+09     0.1000000000E+03
         0.1146000000E+09     0.1000000000E+03
         0.1147000000E+09     0.1000000000E+03
         0.1148000000E+09     0.1000000000E+03
         0.1149000000E+09     0.1000000000E+03
         0.1150000000E+09     0.1000000000E+03
         0.1151000000E+09     0.1000000000E+03
         0.1151000000E+09     0.1000000000E+03
         0.1152000000E+09     0.1000000000E+03
         0.1153000000E+09     0.1000000000E+03
         0.1154000000E+09     0.1000000000E+03
         0.1155000000E+09     0.1000000000E+03
         0.1156000000E+09     0.1000000000E+03
         0.1157000000E+09     0.1000000000E+03
         0.1157000000E+09     0.1000000000E+03
         0.1158000000E+09     0.1000000000E+03
         0.1159000000E+09     0.1000000000E+03
         0.1160000000E+09     0.1000000000E+03
         0.1161000000E+09     0.1000000000E+03
         0.1162000000E+09     0.1000000000E+03
         0.1163000000E+09     0.1000000000E+03
         0.1164000000E+09     0.1000000000E+03
         0.1165000000E+09     0.1000000000E+03
         0.1166000000E+09     0.1000000000E+03
         0.1167000000E+09     0.1000000000E+03
         0.1167000000E+09     0.1000000000E+03
         0.1168000000E+09     0.1000000000E+03
         0.1169000000E+09     0.1000000000E+03
         0.1170000000E+09     0.1000000000E+03
         0.1171000000E+09     0.1000000000E+03
         0.1172000000E+09     0.1000000000E+03
         0.1173000000E+09     0.1000000000E+03
         0.1173000000E+09     0.1000000000E+03
         0.1174000000E+09     0.1000000000E+03
         0.1175000000E+09     0.1000000000E+03
         0.1176000000E+09     0.1000000000E+03
         0.1177000000E+09     0.1000000000E+03
         0.1178000000E+09     0.1000000000E+03
         0.1179000000E+09     0.1000000000E+03
         0.1179000000E+09     0.1000000000E+03
         0.1180000000E+09     0.1000000000E+03
         0.1181000000E+09     0.1000000000E+03
         0.1182000000E+09     0.1000000000E+03
         0.1183000000E+09     0.1000000000E+03
         0.1184000000E+09     0.1000000000E+03
         0.1185000000E+09     0.1000000000E+03
         0.1186000000E+09     0.1000000000E+03
         0.1187000000E+09     0.1000000000E+03
         0.1188000000E+09     0.1000000000E+03
         0.1189000000E+09     0.1000000000E+03
         0.1189000000E+09     0.1000000000E+03
         0.1190000000E+09     0.1000000000E+03
         0.1191000000E+09     0.1000000000E+03
         0.1192000000E+09     0.1000000000E+03
         0.1193000000E+09     0.1000000000E+03
         0.1194000000E+09     0.1000000000E+03
         0.1195000000E+09     0.1000000000E+03
         0.1195000000E+09     0.1000000000E+03
         0.1196000000E+09     0.1000000000E+03
         0.1197000000E+09     0.1000000000E+03
         0.1198000000E+09     0.1000000000E+03
         0.1199000000E+09     0.1000000000E+03
         0.1200000000E+09     0.1000000000E+03
         0.1201000000E+09     0.1000000000E+03
         0.1201000000E+09     0.1000000000E+03
         0.1202000000E+09     0.1000000000E+03
         0.1203000000E+09     0.1000000000E+03
         0.1204000000E+09     0.1000000000E+03
         0.1205000000E+09     0.1000000000E+03
         0.1206000000E+09     0.1000000000E+03
         0.1207000000E+09     0.1000000000E+03
         0.1208000000E+09     0.1000000000E+03
         0.1209000000E+09     0.1000000000E+03
         0.1210000000E+09     0.1000000000E+03
         0.1211000000E+09     0.1000000000E+03
         0.1211000000E+09     0.1000000000E+03
         0.1212000000E+09     0.1000000000E+03
         0.1213000000E+09     0.1000000000E+03
         0.1214000000E+09     0.1000000000E+03
         0.1215000000E+09     0.1000000000E+03
         0.1216000000E+09     0.1000000000E+03
         0.1217000000E+09     0.1000000000E+03
         0.1217000000E+09     0.1000000000E+03
         0.1218000000E+09     0.1000000000E+03
         0.1219000000E+09     0.1000000000E+03
         0.1220000000E+09     0.1000000000E+03
         0.1221000000E+09     0.1000000000E+03
         0.1222000000E+09     0.1000000000E+03
         0.1223000000E+09     0.1000000000E+03
         0.1223000000E+09     0.1000000000E+03
         0.1224000000E+09     0.1000000000E+03
         0.1225000000E+09     0.1000000000E+03
         0.1226000000E+09     0.1000000000E+03
         0.1227000000E+09     0.1000000000E+03
         0.1228000000E+09     0.1000000000E+03
         0.1229000000E+09     0.1000000000E+03
         0.1230000000E+09     0.1000000000E+03
         0.1231000000E+09     0.1000000000E+03
         0.1232000000E+09     0.1000000000E+03
         0.1233000000E+09     0.1000000000E+03
         0.1233000000E+09     0.1000000000E+03
         0.1234000000E+09     0.1000000000E+03
         0.1235000000E+09     0.1000000000E+03
         0.1236000000E+09     0.1000000000E+03
         0.1237000000E+09     0.1000000000E+03
         0.1238000000E+09     0.1000000000E+03
         0.1239000000E+09     0.1000000000E+03
         0.1239000000E+09     0.1000000000E+03
         0.1240000000E+09     0.1000000000E+03
         0.1241000000E+09     0.1000000000E+03
         0.1242000000E+09     0.1000000000E+03
         0.1243000000E+09     0.1000000000E+03
         0.1244000000E+09     0.1000000000E+03
         0.1245000000E+09     0.1000000000E+03
         0.1245000000E+09     0.1000000000E+03
         0.1246000000E+09     0.1000000000E+03
         0.1247000000E+09     0.1000000000E+03
         0.1248000000E+09     0.1000000000E+03
         0.1249000000E+09     0.1000000000E+03
         0.1250000000E+09     0.1000000000E+03
         0.1251000000E+09     0.1000000000E+03
         0.1252000000E+09     0.1000000000E+03
         0.1253000000E+09     0.1000000000E+03
         0.1254000000E+09     0.1000000000E+03
         0.1255000000E+09     0.1000000000E+03
         0.1255000000E+09     0.1000000000E+03
         0.1256000000E+09     0.1000000000E+03
         0.1257000000E+09     0.1000000000E+03
         0.1258000000E+09     0.1000000000E+03
         0.1259000000E+09     0.1000000000E+03
         0.1260000000E+09     0.1000000000E+03



            AREAL INFILTRATION RATE
 READING ON UNIT   19 WITH FORMAT: (10F4.0)            

            1           2           3           4           5           6           7           8           9          10
 ........................................................................................................................
   1   1.0000E-10  2.0000E-10   0.000       0.000       0.000       0.000       0.000       0.000       0.000       0.000    
   2   2.0000E-10  1.0000E-10  2.0000E-10   0.000       0.000      8.0000E-10  8.0000E-10  5.0000E-10   0.000       0.000    
   3    0.000      5.0000E-10  1.0000E-10  1.0000E-10  8.0000E-10  8.0000E-10  5.0000E-10  5.0000E-10   0.000       0.000    
   4   8.0000E-10  5.0000E-10  1.0000E-10  1.0000E-10  1.0000E-10  1.0000E-10  1.0000E-10  1.0000E-10  2.0000E-10   0.000    
   5   8.0000E-10  5.0000E-10  1.0000E-10  1.0000E-10  1.0000E-10  1.0000E-10  1.0000E-10  1.0000E-10  1.0000E-10  1.0000E-10
   6   8.0000E-10  5.0000E-10  5.0000E-10  2.0000E-10  2.0000E-10  1.0000E-10  1.0000E-10  1.0000E-10  1.0000E-10  5.0000E-10
   7   8.0000E-10  5.0000E-10  5.0000E-10  2.0000E-10  2.0000E-10  1.0000E-10  1.0000E-10  2.0000E-10  2.0000E-10   0.000    
   8    0.000      5.0000E-10  5.0000E-10  2.0000E-10  2.0000E-10  1.0000E-10  1.0000E-10  2.0000E-10  5.0000E-10   0.000    
   9    0.000      5.0000E-10  5.0000E-10  2.0000E-10  2.0000E-10  1.0000E-10  1.0000E-10  2.0000E-10  5.0000E-10   0.000    
  10    0.000      5.0000E-10  5.0000E-10  2.0000E-10  2.0000E-10  1.0000E-10  1.0000E-10  2.0000E-10  5.0000E-10  8.0000E-10
  11    0.000      1.0000E-10  1.0000E-10  1.0000E-10  1.0000E-10  1.0000E-10  1.0000E-10  2.0000E-10  5.0000E-10   0.000    
  12   1.0000E-10  1.0000E-10  1.0000E-10  1.0000E-10  1.0000E-10  1.0000E-10  1.0000E-10  1.0000E-10  2.0000E-10   0.000    
  13   1.0000E-10  1.0000E-10  2.0000E-10  2.0000E-10  2.0000E-10  2.0000E-10  2.0000E-10  1.0000E-10  1.0000E-10   0.000    
  14    0.000      2.0000E-10  5.0000E-10  5.0000E-10  5.0000E-10  5.0000E-10  5.0000E-10  2.0000E-10  1.0000E-10   0.000    
  15    0.000       0.000      8.0000E-10  8.0000E-10  8.0000E-10  8.0000E-10   0.000       0.000       0.000       0.000    

                  ET RATE =  1.000000E-08

      ET EXTINCTION DEPTH =  0.500000    

 EXTINCTION WATER CONTENT =  0.200000    

EXTINCTION WATER CONTENT FOR CELL AT ROW     1, COLUMN     1 IS LESS THAN RESIDUAL WATER CONTENT-- SETTING EXTINCTION WATER CONTENT EQUAL TO RESIDUAL WATER CONTENT

EXTINCTION WATER CONTENT FOR CELL AT ROW     1, COLUMN     2 IS LESS THAN RESIDUAL WATER CONTENT-- SETTING EXTINCTION WATER CONTENT EQUAL TO RESIDUAL WATER CONTENT

EXTINCTION WATER CONTENT FOR CELL AT ROW     2, COLUMN     1 IS LESS THAN RESIDUAL WATER CONTENT-- SETTING EXTINCTION WATER CONTENT EQUAL TO RESIDUAL WATER CONTENT

EXTINCTION WATER CONTENT FOR CELL AT ROW     2, COLUMN     2 IS LESS THAN RESIDUAL WATER CONTENT-- SETTING EXTINCTION WATER CONTENT EQUAL TO RESIDUAL WATER CONTENT

EXTINCTION WATER CONTENT FOR CELL AT ROW     2, COLUMN     3 IS LESS THAN RESIDUAL WATER CONTENT-- SETTING EXTINCTION WATER CONTENT EQUAL TO RESIDUAL WATER CONTENT

EXTINCTION WATER CONTENT FOR CELL AT ROW     2, COLUMN     6 IS LESS THAN RESIDUAL WATER CONTENT-- SETTING EXTINCTION WATER CONTENT EQUAL TO RESIDUAL WATER CONTENT

EXTINCTION WATER CONTENT FOR CELL AT ROW     2, COLUMN     7 IS LESS THAN RESIDUAL WATER CONTENT-- SETTING EXTINCTION WATER CONTENT EQUAL TO RESIDUAL WATER CONTENT

EXTINCTION WATER CONTENT FOR CELL AT ROW     2, COLUMN     8 IS LESS THAN RESIDUAL WATER CONTENT-- SETTING EXTINCTION WATER CONTENT EQUAL TO RESIDUAL WATER CONTENT

EXTINCTION WATER CONTENT FOR CELL AT ROW     3, COLUMN     2 IS LESS THAN RESIDUAL WATER CONTENT-- SETTING EXTINCTION WATER CONTENT EQUAL TO RESIDUAL WATER CONTENT

EXTINCTION WATER CONTENT FOR CELL AT ROW     3, COLUMN     3 IS LESS THAN RESIDUAL WATER CONTENT-- SETTING EXTINCTION WATER CONTENT EQUAL TO RESIDUAL WATER CONTENT

EXTINCTION WATER CONTENT FOR CELL AT ROW     3, COLUMN     4 IS LESS THAN RESIDUAL WATER CONTENT-- SETTING EXTINCTION WATER CONTENT EQUAL TO RESIDUAL WATER CONTENT

EXTINCTION WATER CONTENT FOR CELL AT ROW     3, COLUMN     5 IS LESS THAN RESIDUAL WATER CONTENT-- SETTING EXTINCTION WATER CONTENT EQUAL TO RESIDUAL WATER CONTENT

EXTINCTION WATER CONTENT FOR CELL AT ROW     3, COLUMN     6 IS LESS THAN RESIDUAL WATER CONTENT-- SETTING EXTINCTION WATER CONTENT EQUAL TO RESIDUAL WATER CONTENT

EXTINCTION WATER CONTENT FOR CELL AT ROW     3, COLUMN     7 IS LESS THAN RESIDUAL WATER CONTENT-- SETTING EXTINCTION WATER CONTENT EQUAL TO RESIDUAL WATER CONTENT

EXTINCTION WATER CONTENT FOR CELL AT ROW     3, COLUMN     8 IS LESS THAN RESIDUAL WATER CONTENT-- SETTING EXTINCTION WATER CONTENT EQUAL TO RESIDUAL WATER CONTENT

EXTINCTION WATER CONTENT FOR CELL AT ROW     4, COLUMN     1 IS LESS THAN RESIDUAL WATER CONTENT-- SETTING EXTINCTION WATER CONTENT EQUAL TO RESIDUAL WATER CONTENT

EXTINCTION WATER CONTENT FOR CELL AT ROW     4, COLUMN     2 IS LESS THAN RESIDUAL WATER CONTENT-- SETTING EXTINCTION WATER CONTENT EQUAL TO RESIDUAL WATER CONTENT

EXTINCTION WATER CONTENT FOR CELL AT ROW     4, COLUMN     3 IS LESS THAN RESIDUAL WATER CONTENT-- SETTING EXTINCTION WATER CONTENT EQUAL TO RESIDUAL WATER CONTENT

EXTINCTION WATER CONTENT FOR CELL AT ROW     4, COLUMN     4 IS LESS THAN RESIDUAL WATER CONTENT-- SETTING EXTINCTION WATER CONTENT EQUAL TO RESIDUAL WATER CONTENT

EXTINCTION WATER CONTENT FOR CELL AT ROW     4, COLUMN     5 IS LESS THAN RESIDUAL WATER CONTENT-- SETTING EXTINCTION WATER CONTENT EQUAL TO RESIDUAL WATER CONTENT

EXTINCTION WATER CONTENT FOR CELL AT ROW     4, COLUMN     6 IS LESS THAN RESIDUAL WATER CONTENT-- SETTING EXTINCTION WATER CONTENT EQUAL TO RESIDUAL WATER CONTENT

EXTINCTION WATER CONTENT FOR CELL AT ROW     4, COLUMN     7 IS LESS THAN RESIDUAL WATER CONTENT-- SETTING EXTINCTION WATER CONTENT EQUAL TO RESIDUAL WATER CONTENT

EXTINCTION WATER CONTENT FOR CELL AT ROW     4, COLUMN     8 IS LESS THAN RESIDUAL WATER CONTENT-- SETTING EXTINCTION WATER CONTENT EQUAL TO RESIDUAL WATER CONTENT

EXTINCTION WATER CONTENT FOR CELL AT ROW     4, COLUMN     9 IS LESS THAN RESIDUAL WATER CONTENT-- SETTING EXTINCTION WATER CONTENT EQUAL TO RESIDUAL WATER CONTENT

EXTINCTION WATER CONTENT FOR CELL AT ROW     5, COLUMN     1 IS LESS THAN RESIDUAL WATER CONTENT-- SETTING EXTINCTION WATER CONTENT EQUAL TO RESIDUAL WATER CONTENT

EXTINCTION WATER CONTENT FOR CELL AT ROW     5, COLUMN     2 IS LESS THAN RESIDUAL WATER CONTENT-- SETTING EXTINCTION WATER CONTENT EQUAL TO RESIDUAL WATER CONTENT

EXTINCTION WATER CONTENT FOR CELL AT ROW     5, COLUMN     3 IS LESS THAN RESIDUAL WATER CONTENT-- SETTING EXTINCTION WATER CONTENT EQUAL TO RESIDUAL WATER CONTENT

EXTINCTION WATER CONTENT FOR CELL AT ROW     5, COLUMN     4 IS LESS THAN RESIDUAL WATER CONTENT-- SETTING EXTINCTION WATER CONTENT EQUAL TO RESIDUAL WATER CONTENT

EXTINCTION WATER CONTENT FOR CELL AT ROW     5, COLUMN     5 IS LESS THAN RESIDUAL WATER CONTENT-- SETTING EXTINCTION WATER CONTENT EQUAL TO RESIDUAL WATER CONTENT

EXTINCTION WATER CONTENT FOR CELL AT ROW     5, COLUMN     6 IS LESS THAN RESIDUAL WATER CONTENT-- SETTING EXTINCTION WATER CONTENT EQUAL TO RESIDUAL WATER CONTENT

EXTINCTION WATER CONTENT FOR CELL AT ROW     5, COLUMN     7 IS LESS THAN RESIDUAL WATER CONTENT-- SETTING EXTINCTION WATER CONTENT EQUAL TO RESIDUAL WATER CONTENT

EXTINCTION WATER CONTENT FOR CELL AT ROW     5, COLUMN     8 IS LESS THAN RESIDUAL WATER CONTENT-- SETTING EXTINCTION WATER CONTENT EQUAL TO RESIDUAL WATER CONTENT

EXTINCTION WATER CONTENT FOR CELL AT ROW     5, COLUMN     9 IS LESS THAN RESIDUAL WATER CONTENT-- SETTING EXTINCTION WATER CONTENT EQUAL TO RESIDUAL WATER CONTENT

EXTINCTION WATER CONTENT FOR CELL AT ROW     5, COLUMN    10 IS LESS THAN RESIDUAL WATER CONTENT-- SETTING EXTINCTION WATER CONTENT EQUAL TO RESIDUAL WATER CONTENT

EXTINCTION WATER CONTENT FOR CELL AT ROW     6, COLUMN     1 IS LESS THAN RESIDUAL WATER CONTENT-- SETTING EXTINCTION WATER CONTENT EQUAL TO RESIDUAL WATER CONTENT

EXTINCTION WATER CONTENT FOR CELL AT ROW     6, COLUMN     2 IS LESS THAN RESIDUAL WATER CONTENT-- SETTING EXTINCTION WATER CONTENT EQUAL TO RESIDUAL WATER CONTENT

EXTINCTION WATER CONTENT FOR CELL AT ROW     6, COLUMN     3 IS LESS THAN RESIDUAL WATER CONTENT-- SETTING EXTINCTION WATER CONTENT EQUAL TO RESIDUAL WATER CONTENT

EXTINCTION WATER CONTENT FOR CELL AT ROW     6, COLUMN     4 IS LESS THAN RESIDUAL WATER CONTENT-- SETTING EXTINCTION WATER CONTENT EQUAL TO RESIDUAL WATER CONTENT

EXTINCTION WATER CONTENT FOR CELL AT ROW     6, COLUMN     5 IS LESS THAN RESIDUAL WATER CONTENT-- SETTING EXTINCTION WATER CONTENT EQUAL TO RESIDUAL WATER CONTENT

EXTINCTION WATER CONTENT FOR CELL AT ROW     6, COLUMN     6 IS LESS THAN RESIDUAL WATER CONTENT-- SETTING EXTINCTION WATER CONTENT EQUAL TO RESIDUAL WATER CONTENT

EXTINCTION WATER CONTENT FOR CELL AT ROW     6, COLUMN     7 IS LESS THAN RESIDUAL WATER CONTENT-- SETTING EXTINCTION WATER CONTENT EQUAL TO RESIDUAL WATER CONTENT

EXTINCTION WATER CONTENT FOR CELL AT ROW     6, COLUMN     8 IS LESS THAN RESIDUAL WATER CONTENT-- SETTING EXTINCTION WATER CONTENT EQUAL TO RESIDUAL WATER CONTENT

EXTINCTION WATER CONTENT FOR CELL AT ROW     6, COLUMN     9 IS LESS THAN RESIDUAL WATER CONTENT-- SETTING EXTINCTION WATER CONTENT EQUAL TO RESIDUAL WATER CONTENT

EXTINCTION WATER CONTENT FOR CELL AT ROW     6, COLUMN    10 IS LESS THAN RESIDUAL WATER CONTENT-- SETTING EXTINCTION WATER CONTENT EQUAL TO RESIDUAL WATER CONTENT

EXTINCTION WATER CONTENT FOR CELL AT ROW     7, COLUMN     1 IS LESS THAN RESIDUAL WATER CONTENT-- SETTING EXTINCTION WATER CONTENT EQUAL TO RESIDUAL WATER CONTENT

EXTINCTION WATER CONTENT FOR CELL AT ROW     7, COLUMN     2 IS LESS THAN RESIDUAL WATER CONTENT-- SETTING EXTINCTION WATER CONTENT EQUAL TO RESIDUAL WATER CONTENT

EXTINCTION WATER CONTENT FOR CELL AT ROW     7, COLUMN     3 IS LESS THAN RESIDUAL WATER CONTENT-- SETTING EXTINCTION WATER CONTENT EQUAL TO RESIDUAL WATER CONTENT

EXTINCTION WATER CONTENT FOR CELL AT ROW     7, COLUMN     4 IS LESS THAN RESIDUAL WATER CONTENT-- SETTING EXTINCTION WATER CONTENT EQUAL TO RESIDUAL WATER CONTENT

EXTINCTION WATER CONTENT FOR CELL AT ROW     7, COLUMN     5 IS LESS THAN RESIDUAL WATER CONTENT-- SETTING EXTINCTION WATER CONTENT EQUAL TO RESIDUAL WATER CONTENT

EXTINCTION WATER CONTENT FOR CELL AT ROW     7, COLUMN     6 IS LESS THAN RESIDUAL WATER CONTENT-- SETTING EXTINCTION WATER CONTENT EQUAL TO RESIDUAL WATER CONTENT

EXTINCTION WATER CONTENT FOR CELL AT ROW     7, COLUMN     7 IS LESS THAN RESIDUAL WATER CONTENT-- SETTING EXTINCTION WATER CONTENT EQUAL TO RESIDUAL WATER CONTENT

EXTINCTION WATER CONTENT FOR CELL AT ROW     7, COLUMN     8 IS LESS THAN RESIDUAL WATER CONTENT-- SETTING EXTINCTION WATER CONTENT EQUAL TO RESIDUAL WATER CONTENT

EXTINCTION WATER CONTENT FOR CELL AT ROW     7, COLUMN     9 IS LESS THAN RESIDUAL WATER CONTENT-- SETTING EXTINCTION WATER CONTENT EQUAL TO RESIDUAL WATER CONTENT

EXTINCTION WATER CONTENT FOR CELL AT ROW     8, COLUMN     2 IS LESS THAN RESIDUAL WATER CONTENT-- SETTING EXTINCTION WATER CONTENT EQUAL TO RESIDUAL WATER CONTENT

EXTINCTION WATER CONTENT FOR CELL AT ROW     8, COLUMN     3 IS LESS THAN RESIDUAL WATER CONTENT-- SETTING EXTINCTION WATER CONTENT EQUAL TO RESIDUAL WATER CONTENT

EXTINCTION WATER CONTENT FOR CELL AT ROW     8, COLUMN     4 IS LESS THAN RESIDUAL WATER CONTENT-- SETTING EXTINCTION WATER CONTENT EQUAL TO RESIDUAL WATER CONTENT

EXTINCTION WATER CONTENT FOR CELL AT ROW     8, COLUMN     5 IS LESS THAN RESIDUAL WATER CONTENT-- SETTING EXTINCTION WATER CONTENT EQUAL TO RESIDUAL WATER CONTENT

EXTINCTION WATER CONTENT FOR CELL AT ROW     8, COLUMN     6 IS LESS THAN RESIDUAL WATER CONTENT-- SETTING EXTINCTION WATER CONTENT EQUAL TO RESIDUAL WATER CONTENT

EXTINCTION WATER CONTENT FOR CELL AT ROW     8, COLUMN     7 IS LESS THAN RESIDUAL WATER CONTENT-- SETTING EXTINCTION WATER CONTENT EQUAL TO RESIDUAL WATER CONTENT

EXTINCTION WATER CONTENT FOR CELL AT ROW     8, COLUMN     8 IS LESS THAN RESIDUAL WATER CONTENT-- SETTING EXTINCTION WATER CONTENT EQUAL TO RESIDUAL WATER CONTENT

EXTINCTION WATER CONTENT FOR CELL AT ROW     8, COLUMN     9 IS LESS THAN RESIDUAL WATER CONTENT-- SETTING EXTINCTION WATER CONTENT EQUAL TO RESIDUAL WATER CONTENT

EXTINCTION WATER CONTENT FOR CELL AT ROW     9, COLUMN     2 IS LESS THAN RESIDUAL WATER CONTENT-- SETTING EXTINCTION WATER CONTENT EQUAL TO RESIDUAL WATER CONTENT

EXTINCTION WATER CONTENT FOR CELL AT ROW     9, COLUMN     3 IS LESS THAN RESIDUAL WATER CONTENT-- SETTING EXTINCTION WATER CONTENT EQUAL TO RESIDUAL WATER CONTENT

EXTINCTION WATER CONTENT FOR CELL AT ROW     9, COLUMN     4 IS LESS THAN RESIDUAL WATER CONTENT-- SETTING EXTINCTION WATER CONTENT EQUAL TO RESIDUAL WATER CONTENT

EXTINCTION WATER CONTENT FOR CELL AT ROW     9, COLUMN     5 IS LESS THAN RESIDUAL WATER CONTENT-- SETTING EXTINCTION WATER CONTENT EQUAL TO RESIDUAL WATER CONTENT

EXTINCTION WATER CONTENT FOR CELL AT ROW     9, COLUMN     6 IS LESS THAN RESIDUAL WATER CONTENT-- SETTING EXTINCTION WATER CONTENT EQUAL TO RESIDUAL WATER CONTENT

EXTINCTION WATER CONTENT FOR CELL AT ROW     9, COLUMN     7 IS LESS THAN RESIDUAL WATER CONTENT-- SETTING EXTINCTION WATER CONTENT EQUAL TO RESIDUAL WATER CONTENT

EXTINCTION WATER CONTENT FOR CELL AT ROW     9, COLUMN     8 IS LESS THAN RESIDUAL WATER CONTENT-- SETTING EXTINCTION WATER CONTENT EQUAL TO RESIDUAL WATER CONTENT

EXTINCTION WATER CONTENT FOR CELL AT ROW     9, COLUMN     9 IS LESS THAN RESIDUAL WATER CONTENT-- SETTING EXTINCTION WATER CONTENT EQUAL TO RESIDUAL WATER CONTENT

EXTINCTION WATER CONTENT FOR CELL AT ROW    10, COLUMN     2 IS LESS THAN RESIDUAL WATER CONTENT-- SETTING EXTINCTION WATER CONTENT EQUAL TO RESIDUAL WATER CONTENT

EXTINCTION WATER CONTENT FOR CELL AT ROW    10, COLUMN     3 IS LESS THAN RESIDUAL WATER CONTENT-- SETTING EXTINCTION WATER CONTENT EQUAL TO RESIDUAL WATER CONTENT

EXTINCTION WATER CONTENT FOR CELL AT ROW    10, COLUMN     4 IS LESS THAN RESIDUAL WATER CONTENT-- SETTING EXTINCTION WATER CONTENT EQUAL TO RESIDUAL WATER CONTENT

EXTINCTION WATER CONTENT FOR CELL AT ROW    10, COLUMN     5 IS LESS THAN RESIDUAL WATER CONTENT-- SETTING EXTINCTION WATER CONTENT EQUAL TO RESIDUAL WATER CONTENT

EXTINCTION WATER CONTENT FOR CELL AT ROW    10, COLUMN     6 IS LESS THAN RESIDUAL WATER CONTENT-- SETTING EXTINCTION WATER CONTENT EQUAL TO RESIDUAL WATER CONTENT

EXTINCTION WATER CONTENT FOR CELL AT ROW    10, COLUMN     7 IS LESS THAN RESIDUAL WATER CONTENT-- SETTING EXTINCTION WATER CONTENT EQUAL TO RESIDUAL WATER CONTENT

EXTINCTION WATER CONTENT FOR CELL AT ROW    10, COLUMN     8 IS LESS THAN RESIDUAL WATER CONTENT-- SETTING EXTINCTION WATER CONTENT EQUAL TO RESIDUAL WATER CONTENT

EXTINCTION WATER CONTENT FOR CELL AT ROW    10, COLUMN     9 IS LESS THAN RESIDUAL WATER CONTENT-- SETTING EXTINCTION WATER CONTENT EQUAL TO RESIDUAL WATER CONTENT

EXTINCTION WATER CONTENT FOR CELL AT ROW    10, COLUMN    10 IS LESS THAN RESIDUAL WATER CONTENT-- SETTING EXTINCTION WATER CONTENT EQUAL TO RESIDUAL WATER CONTENT

EXTINCTION WATER CONTENT FOR CELL AT ROW    11, COLUMN     2 IS LESS THAN RESIDUAL WATER CONTENT-- SETTING EXTINCTION WATER CONTENT EQUAL TO RESIDUAL WATER CONTENT

EXTINCTION WATER CONTENT FOR CELL AT ROW    11, COLUMN     3 IS LESS THAN RESIDUAL WATER CONTENT-- SETTING EXTINCTION WATER CONTENT EQUAL TO RESIDUAL WATER CONTENT

EXTINCTION WATER CONTENT FOR CELL AT ROW    11, COLUMN     4 IS LESS THAN RESIDUAL WATER CONTENT-- SETTING EXTINCTION WATER CONTENT EQUAL TO RESIDUAL WATER CONTENT

EXTINCTION WATER CONTENT FOR CELL AT ROW    11, COLUMN     5 IS LESS THAN RESIDUAL WATER CONTENT-- SETTING EXTINCTION WATER CONTENT EQUAL TO RESIDUAL WATER CONTENT

EXTINCTION WATER CONTENT FOR CELL AT ROW    11, COLUMN     6 IS LESS THAN RESIDUAL WATER CONTENT-- SETTING EXTINCTION WATER CONTENT EQUAL TO RESIDUAL WATER CONTENT

EXTINCTION WATER CONTENT FOR CELL AT ROW    11, COLUMN     7 IS LESS THAN RESIDUAL WATER CONTENT-- SETTING EXTINCTION WATER CONTENT EQUAL TO RESIDUAL WATER CONTENT

EXTINCTION WATER CONTENT FOR CELL AT ROW    11, COLUMN     8 IS LESS THAN RESIDUAL WATER CONTENT-- SETTING EXTINCTION WATER CONTENT EQUAL TO RESIDUAL WATER CONTENT

EXTINCTION WATER CONTENT FOR CELL AT ROW    11, COLUMN     9 IS LESS THAN RESIDUAL WATER CONTENT-- SETTING EXTINCTION WATER CONTENT EQUAL TO RESIDUAL WATER CONTENT

EXTINCTION WATER CONTENT FOR CELL AT ROW    12, COLUMN     1 IS LESS THAN RESIDUAL WATER CONTENT-- SETTING EXTINCTION WATER CONTENT EQUAL TO RESIDUAL WATER CONTENT

EXTINCTION WATER CONTENT FOR CELL AT ROW    12, COLUMN     2 IS LESS THAN RESIDUAL WATER CONTENT-- SETTING EXTINCTION WATER CONTENT EQUAL TO RESIDUAL WATER CONTENT

EXTINCTION WATER CONTENT FOR CELL AT ROW    12, COLUMN     3 IS LESS THAN RESIDUAL WATER CONTENT-- SETTING EXTINCTION WATER CONTENT EQUAL TO RESIDUAL WATER CONTENT

EXTINCTION WATER CONTENT FOR CELL AT ROW    12, COLUMN     4 IS LESS THAN RESIDUAL WATER CONTENT-- SETTING EXTINCTION WATER CONTENT EQUAL TO RESIDUAL WATER CONTENT

EXTINCTION WATER CONTENT FOR CELL AT ROW    12, COLUMN     5 IS LESS THAN RESIDUAL WATER CONTENT-- SETTING EXTINCTION WATER CONTENT EQUAL TO RESIDUAL WATER CONTENT

EXTINCTION WATER CONTENT FOR CELL AT ROW    12, COLUMN     6 IS LESS THAN RESIDUAL WATER CONTENT-- SETTING EXTINCTION WATER CONTENT EQUAL TO RESIDUAL WATER CONTENT

EXTINCTION WATER CONTENT FOR CELL AT ROW    12, COLUMN     7 IS LESS THAN RESIDUAL WATER CONTENT-- SETTING EXTINCTION WATER CONTENT EQUAL TO RESIDUAL WATER CONTENT

EXTINCTION WATER CONTENT FOR CELL AT ROW    12, COLUMN     8 IS LESS THAN RESIDUAL WATER CONTENT-- SETTING EXTINCTION WATER CONTENT EQUAL TO RESIDUAL WATER CONTENT

EXTINCTION WATER CONTENT FOR CELL AT ROW    12, COLUMN     9 IS LESS THAN RESIDUAL WATER CONTENT-- SETTING EXTINCTION WATER CONTENT EQUAL TO RESIDUAL WATER CONTENT

EXTINCTION WATER CONTENT FOR CELL AT ROW    13, COLUMN     1 IS LESS THAN RESIDUAL WATER CONTENT-- SETTING EXTINCTION WATER CONTENT EQUAL TO RESIDUAL WATER CONTENT

EXTINCTION WATER CONTENT FOR CELL AT ROW    13, COLUMN     2 IS LESS THAN RESIDUAL WATER CONTENT-- SETTING EXTINCTION WATER CONTENT EQUAL TO RESIDUAL WATER CONTENT

EXTINCTION WATER CONTENT FOR CELL AT ROW    13, COLUMN     3 IS LESS THAN RESIDUAL WATER CONTENT-- SETTING EXTINCTION WATER CONTENT EQUAL TO RESIDUAL WATER CONTENT

EXTINCTION WATER CONTENT FOR CELL AT ROW    13, COLUMN     4 IS LESS THAN RESIDUAL WATER CONTENT-- SETTING EXTINCTION WATER CONTENT EQUAL TO RESIDUAL WATER CONTENT

EXTINCTION WATER CONTENT FOR CELL AT ROW    13, COLUMN     5 IS LESS THAN RESIDUAL WATER CONTENT-- SETTING EXTINCTION WATER CONTENT EQUAL TO RESIDUAL WATER CONTENT

EXTINCTION WATER CONTENT FOR CELL AT ROW    13, COLUMN     6 IS LESS THAN RESIDUAL WATER CONTENT-- SETTING EXTINCTION WATER CONTENT EQUAL TO RESIDUAL WATER CONTENT

EXTINCTION WATER CONTENT FOR CELL AT ROW    13, COLUMN     7 IS LESS THAN RESIDUAL WATER CONTENT-- SETTING EXTINCTION WATER CONTENT EQUAL TO RESIDUAL WATER CONTENT

EXTINCTION WATER CONTENT FOR CELL AT ROW    13, COLUMN     8 IS LESS THAN RESIDUAL WATER CONTENT-- SETTING EXTINCTION WATER CONTENT EQUAL TO RESIDUAL WATER CONTENT

EXTINCTION WATER CONTENT FOR CELL AT ROW    13, COLUMN     9 IS LESS THAN RESIDUAL WATER CONTENT-- SETTING EXTINCTION WATER CONTENT EQUAL TO RESIDUAL WATER CONTENT

EXTINCTION WATER CONTENT FOR CELL AT ROW    14, COLUMN     2 IS LESS THAN RESIDUAL WATER CONTENT-- SETTING EXTINCTION WATER CONTENT EQUAL TO RESIDUAL WATER CONTENT

EXTINCTION WATER CONTENT FOR CELL AT ROW    14, COLUMN     3 IS LESS THAN RESIDUAL WATER CONTENT-- SETTING EXTINCTION WATER CONTENT EQUAL TO RESIDUAL WATER CONTENT

EXTINCTION WATER CONTENT FOR CELL AT ROW    14, COLUMN     4 IS LESS THAN RESIDUAL WATER CONTENT-- SETTING EXTINCTION WATER CONTENT EQUAL TO RESIDUAL WATER CONTENT

EXTINCTION WATER CONTENT FOR CELL AT ROW    14, COLUMN     5 IS LESS THAN RESIDUAL WATER CONTENT-- SETTING EXTINCTION WATER CONTENT EQUAL TO RESIDUAL WATER CONTENT

EXTINCTION WATER CONTENT FOR CELL AT ROW    14, COLUMN     6 IS LESS THAN RESIDUAL WATER CONTENT-- SETTING EXTINCTION WATER CONTENT EQUAL TO RESIDUAL WATER CONTENT

EXTINCTION WATER CONTENT FOR CELL AT ROW    14, COLUMN     7 IS LESS THAN RESIDUAL WATER CONTENT-- SETTING EXTINCTION WATER CONTENT EQUAL TO RESIDUAL WATER CONTENT

EXTINCTION WATER CONTENT FOR CELL AT ROW    14, COLUMN     8 IS LESS THAN RESIDUAL WATER CONTENT-- SETTING EXTINCTION WATER CONTENT EQUAL TO RESIDUAL WATER CONTENT

EXTINCTION WATER CONTENT FOR CELL AT ROW    14, COLUMN     9 IS LESS THAN RESIDUAL WATER CONTENT-- SETTING EXTINCTION WATER CONTENT EQUAL TO RESIDUAL WATER CONTENT

EXTINCTION WATER CONTENT FOR CELL AT ROW    15, COLUMN     3 IS LESS THAN RESIDUAL WATER CONTENT-- SETTING EXTINCTION WATER CONTENT EQUAL TO RESIDUAL WATER CONTENT

EXTINCTION WATER CONTENT FOR CELL AT ROW    15, COLUMN     4 IS LESS THAN RESIDUAL WATER CONTENT-- SETTING EXTINCTION WATER CONTENT EQUAL TO RESIDUAL WATER CONTENT

EXTINCTION WATER CONTENT FOR CELL AT ROW    15, COLUMN     5 IS LESS THAN RESIDUAL WATER CONTENT-- SETTING EXTINCTION WATER CONTENT EQUAL TO RESIDUAL WATER CONTENT

EXTINCTION WATER CONTENT FOR CELL AT ROW    15, COLUMN     6 IS LESS THAN RESIDUAL WATER CONTENT-- SETTING EXTINCTION WATER CONTENT EQUAL TO RESIDUAL WATER CONTENT

       AIR ENTRY PRESSURE =  -1.10000    

            ROOT PRESSURE =  -75.0000    

            ROOT ACTIVITY =   1.00000    
 # AG segment list

 PROCESSING SEGMENT LIST

 FINISHED READING SEGMENT LIST
 # AG well list

 PROCESSING WELL LIST

 LAYER   ROW   COL   MAX STRESS RATE         
 --------------------------------------------
      1      1      6      4      -100.0    
      2      1      6      5      -100.0    
      3      1      7      4      -100.0    
      4      1      7      5      -100.0    
      5      1      8      4      -100.0    
      6      1      8      5      -100.0    

 FINISHED READING WELL LIST

      6 WELLS

 PROCESSING AG STRESS PERIOD DATA
 # AG stress period

 READING AG STRESS PERIOD DATA

 READING IRRIGATION SEGMENT

 READING IRRIGATION WELL

 READING SUPPLEMENTAL WELL

 END PROCESSING AG STRESS PERIOD DATA OPTIONS
 
 SOLVING FOR HEAD 
                                                   Max.-Head-Change                         Max.-Flux-Residual
  Residual-Control   Outer-Iter.   Inner-Iter.     Column Row Layer    Maximum-Head-Change  Column Row Layer    Maximum-Flux-Residual          L2-NORM 
          0                 1           6             2    2     1      -0.2843914191E+02       3    3    1        -0.3360741367E+01      0.9336255202E+01
          0                 2           6             1    1     1      -0.3130416779E+02       1   13    1        -0.6347781745E+02      0.6369041869E+02
          0                 3           5             1    1     1      -0.1456238505E+01       6   13    1        -0.2214092883E+01      0.3433615922E+01
          0                 4           5             5   13     1      -0.1645980091E+00       5   13    1        -0.3292041480E+00      0.3977240951E+00
          0                 5           4             5   14     1       0.3281686166E-01       5   13    1         0.1669597068E-01      0.2767752842E-01
          0                 6           2             5   14     1      -0.1281592110E-02       5   13    1        -0.6694907493E-03      0.2031367476E-02
          0                 7           1             5   10     1       0.1514216708E-04       5   10    1         0.2520492239E-04      0.8039520649E-04

    ------------------------------------------------
       NWT REQUIRED            7 OUTER ITERATIONS 
       AND A TOTAL OF         29 INNER ITERATIONS.
    ------------------------------------------------

 OUTPUT CONTROL FOR STRESS PERIOD    1   TIME STEP    1
    PRINT BUDGET
    PRINT HEAD FOR ALL LAYERS
    SAVE BUDGET
    SAVE HEAD FOR ALL LAYERS
 UBDSV2 SAVING "   CONSTANT HEAD" ON UNIT 102 AT TIME STEP  1, STRESS PERIOD   1
 UBDSV1 SAVING "FLOW RIGHT FACE " ON UNIT 102 AT TIME STEP  1, STRESS PERIOD   1
 UBDSV1 SAVING "FLOW FRONT FACE " ON UNIT 102 AT TIME STEP  1, STRESS PERIOD   1

  HEAD DEP BOUNDS   PERIOD    1   STEP     1
 BOUNDARY      1   LAYER   1   ROW    13   COL     1   RATE   -0.287059    
 BOUNDARY      2   LAYER   1   ROW    14   COL     9   RATE    0.285620    



 STREAM LISTING     PERIOD      1   STEP        1

 LAYER ROW COL. STREAM  RCH.  FLOW INTO     FLOW TO   FLOW OUT OF   OVRLND.     DIRECT     STREAM       STREAM     STREAM     STREAM   STREAMBED  STREAMBED
                SEG.NO.  NO.  STRM. RCH.    AQUIFER    STRM. RCH.    RUNOFF     PRECIP       ET          HEAD       DEPTH      WIDTH   CONDCTNC.   GRADIENT

   1    1    1     1     1    3.7500E+00  8.5597E-02   3.6644E+00  0.000E+00  0.000E+00  0.000E+00  1.09373E+03  6.817E-01  5.166E+00  2.325E-02  1.227E+00
   1    2    2     1     2    3.6644E+00  1.3158E-01   3.5328E+00  0.000E+00  0.000E+00  0.000E+00  1.08873E+03  6.747E-01  5.115E+00  3.581E-02  1.225E+00
   1    3    3     1     3    3.5328E+00  1.1125E-01   3.4216E+00  0.000E+00  0.000E+00  0.000E+00  1.08309E+03  6.667E-01  5.057E+00  3.034E-02  1.222E+00
   1    3    4     1     4    3.4216E+00  1.0164E-01   3.3199E+00  0.000E+00  0.000E+00  0.000E+00  1.07807E+03  6.595E-01  5.004E+00  2.777E-02  1.220E+00
   1    4    5     2     1    1.3199E+00  2.4920E-01   1.0707E+00  0.000E+00  0.000E+00  0.000E+00  1.07213E+03  1.948E-01  1.200E+01  7.800E-02  1.065E+00
   1    5    6     2     2    1.0707E+00  1.9035E-01   8.8040E-01  0.000E+00  0.000E+00  0.000E+00  1.06668E+03  1.725E-01  1.200E+01  6.000E-02  1.057E+00
   1    6    6     2     3    8.8040E-01  1.8909E-01   6.9131E-01  0.000E+00  0.000E+00  0.000E+00  1.06194E+03  1.515E-01  1.200E+01  6.000E-02  1.050E+00
   1    7    6     2     4    6.9131E-01  1.8771E-01   5.0360E-01  0.000E+00  0.000E+00  0.000E+00  1.05720E+03  1.285E-01  1.200E+01  6.000E-02  1.043E+00
   1    8    6     2     5    5.0360E-01  1.8616E-01   3.1744E-01  0.000E+00  0.000E+00  0.000E+00  1.05246E+03  1.026E-01  1.200E+01  6.000E-02  1.034E+00
   1    3    5     3     1    2.0000E+00  2.8252E-01   1.7175E+00  0.000E+00  0.000E+00  0.000E+00  1.07555E+03  1.909E+00  9.636E+00  7.227E-02  1.955E+00
   1    3    6     3     2    1.7175E+00  2.4905E-01   1.4684E+00  0.000E+00  0.000E+00  0.000E+00  1.07264E+03  1.727E+00  8.909E+00  6.682E-02  1.864E+00
   1    3    7     3     3    1.4684E+00  1.9718E-01   1.2712E+00  0.000E+00  0.000E+00  0.000E+00  1.06987E+03  1.555E+00  8.218E+00  5.547E-02  1.777E+00
   1    4    8     3     4    1.2712E+00  2.2567E-01   1.0456E+00  0.000E+00  0.000E+00  0.000E+00  1.06682E+03  1.364E+00  7.455E+00  6.709E-02  1.682E+00
   1    5    8     3     5    1.0456E+00  1.5790E-01   8.8768E-01  0.000E+00  0.000E+00  0.000E+00  1.06362E+03  1.164E+00  6.655E+00  4.991E-02  1.582E+00
   1    6    8     3     6    8.8768E-01  5.5980E-02   8.3170E-01  0.000E+00  0.000E+00  0.000E+00  1.06158E+03  1.036E+00  6.145E+00  1.844E-02  1.518E+00
   1    5   10     4     1    1.0000E+01  9.0919E-02   9.9091E+00  0.000E+00  0.000E+00  0.000E+00  1.07836E+03  6.368E-01  1.000E+01  2.500E-02  1.212E+00
   1    5    9     4     2    9.9091E+00  1.8158E-01   9.7275E+00  0.000E+00  0.000E+00  0.000E+00  1.07154E+03  6.315E-01  1.000E+01  5.000E-02  1.211E+00
   1    6    8     4     3    9.7275E+00  1.2689E-01   9.6006E+00  0.000E+00  0.000E+00  0.000E+00  1.06381E+03  6.256E-01  1.000E+01  3.500E-02  1.209E+00
   1    6    8     5     1    1.0432E+01  2.2686E-01   1.0205E+01  0.000E+00  0.000E+00  0.000E+00  1.05868E+03  6.790E-01  1.542E+01  6.166E-02  1.226E+00
   1    7    7     5     2    1.0205E+01  2.7894E-01   9.9265E+00  0.000E+00  0.000E+00  0.000E+00  1.05417E+03  6.732E-01  1.519E+01  7.594E-02  1.224E+00
   1    8    7     5     3    9.9265E+00  1.9221E-01   9.7343E+00  0.000E+00  0.000E+00  0.000E+00  1.04992E+03  6.676E-01  1.497E+01  5.241E-02  1.223E+00
   1    8    6     5     4    9.7343E+00  1.3577E-01   9.5985E+00  0.000E+00  0.000E+00  0.000E+00  1.04691E+03  6.637E-01  1.482E+01  3.706E-02  1.221E+00
   1    9    6     6     1    9.9160E+00  2.2178E-01   9.6942E+00  0.000E+00  0.000E+00  0.000E+00  1.04342E+03  6.964E-01  1.200E+01  6.000E-02  1.232E+00
   1   10    7     6     2    9.6942E+00  2.2121E-01   9.4730E+00  0.000E+00  0.000E+00  0.000E+00  1.03887E+03  6.869E-01  1.200E+01  6.000E-02  1.229E+00
   1   11    7     6     3    9.4730E+00  2.2064E-01   9.2523E+00  0.000E+00  0.000E+00  0.000E+00  1.03431E+03  6.773E-01  1.200E+01  6.000E-02  1.226E+00
   1   12    7     6     4    9.2523E+00  2.2006E-01   9.0323E+00  0.000E+00  0.000E+00  0.000E+00  1.02976E+03  6.677E-01  1.200E+01  6.000E-02  1.223E+00
   1   13    7     6     5    9.0323E+00 -1.1354E-01   9.1458E+00  0.000E+00  0.000E+00  0.000E+00  1.02657E+03  6.654E-01  1.200E+01  2.400E-01 -1.577E-01
   1   14    9     7     1    1.5000E+02  1.3338E+00   1.4867E+02  0.000E+00  0.000E+00  0.000E+00  1.03987E+03  2.288E+00  5.529E+01  5.593E-01  7.949E-01
   1   13    8     7     2    1.4867E+02  1.8355E+00   1.4683E+02  0.000E+00  0.000E+00  0.000E+00  1.03478E+03  2.279E+00  5.526E+01  6.148E-01  9.952E-01
   1   13    7     7     3    1.4683E+02  1.4756E+00   1.4536E+02  0.000E+00  0.000E+00  0.000E+00  1.02969E+03  2.270E+00  5.522E+01  5.585E-01  8.807E-01
   1   13    6     8     1    1.5450E+02  8.2944E-01   1.5367E+02  0.000E+00  0.000E+00  0.000E+00  1.02472E+03  2.845E+00  4.126E+01  4.204E-01  6.576E-01
   1   13    5     8     2    1.5367E+02  1.0127E-01   1.5357E+02  0.000E+00  0.000E+00  0.000E+00  1.01847E+03  2.842E+00  4.121E+01  4.200E-01  8.038E-02
   1   13    4     8     3    1.5357E+02 -2.6792E+00   1.5625E+02  0.000E+00  0.000E+00  0.000E+00  1.01223E+03  2.851E+00  4.134E+01  4.213E+00 -2.120E-01
   1   13    3     8     4    1.5625E+02 -3.7567E+00   1.6001E+02  0.000E+00  0.000E+00  0.000E+00  1.00600E+03  2.873E+00  4.166E+01  4.245E+00 -2.950E-01
   1   13    2     8     5    1.6001E+02 -2.6055E+00   1.6261E+02  0.000E+00  0.000E+00  0.000E+00  9.99770E+02  2.895E+00  4.197E+01  4.277E+00 -2.031E-01
   1   13    1     8     6    1.6261E+02 -1.9843E+00   1.6460E+02  0.000E+00  0.000E+00  0.000E+00  9.94785E+02  2.910E+00  4.220E+01  2.580E+00 -2.564E-01
   1    8    6     9     1    0.0000E+00  0.0000E+00   0.0000E+00  0.000E+00  0.000E+00  0.000E+00  1.07875E+03  0.000E+00  4.000E+00  0.000E+00  1.000E+00
   1    8    5     9     2    0.0000E+00  0.0000E+00   0.0000E+00  0.000E+00  0.000E+00  0.000E+00  1.07825E+03  0.000E+00  4.000E+00  0.000E+00  1.000E+00



 UBDSV3 SAVING "           GW ET" ON UNIT  61 AT TIME STEP  1, STRESS PERIOD   1
 UBDSV3 SAVING "    UZF RECHARGE" ON UNIT  61 AT TIME STEP  1, STRESS PERIOD   1
 UBDSV3 SAVING " SURFACE LEAKAGE" ON UNIT  61 AT TIME STEP  1, STRESS PERIOD   1
 UBDSV3 SAVING "       HORT+DUNN" ON UNIT  61 AT TIME STEP  1, STRESS PERIOD   1
 UBDSV3 SAVING "  STORAGE CHANGE" ON UNIT  61 AT TIME STEP  1, STRESS PERIOD   1


UNSATURATED ZONE PACKAGE VOLUMETRIC BUDGET FOR  TIME STEP     1 STRESS PERIOD    1
  ------------------------------------------------------------------------------



     CUMULATIVE VOLUMES      L**3       RATES FOR THIS TIME STEP      L**3/T
     ------------------                 ------------------------

           IN:                                      IN:
           ---                                      ---
        INFILTRATION =       73224.0000          INFILTRATION =           0.8475

          OUT:                                     OUT:
          ----                                     ----
              UZF ET =       0.0000E+00                UZF ET =       0.0000E+00
        UZF RECHARGE =       73224.0000          UZF RECHARGE =           0.8475

            IN - OUT =       0.0000E+00              IN - OUT =       0.0000E+00

          STORAGE:                                 STORAGE:
          --------                                 --------
      STORAGE CHANGE =       0.0000E+00        STORAGE CHANGE =       0.0000E+00

 PERCENT DISCREPANCY IS DIFFERENCE BETWEEN IN-OUT MINUS CHANGE IN STORAGE
 DIVIDED BY THE AVERAGE OF IN AND OUT TIMES 100

 PERCENT DISCREPANCY =           0.00     PERCENT DISCREPANCY =           0.00






 

            AG WELLS      PERIOD    1   STEP   1
 AG WELL      1   LAYER   1   ROW     6   COL     4   RATE     0.00000    
 AG WELL      2   LAYER   1   ROW     6   COL     5   RATE     0.00000    
 AG WELL      3   LAYER   1   ROW     7   COL     4   RATE     0.00000    
 AG WELL      4   LAYER   1   ROW     7   COL     5   RATE     0.00000    
 AG WELL      5   LAYER   1   ROW     8   COL     4   RATE     0.00000    
 AG WELL      6   LAYER   1   ROW     8   COL     5   RATE     0.00000    
 
 

   DIVERSION SEGMENTS     PERIOD    1   STEP   1
 
 

        SW IRRIGATION     PERIOD    1   STEP   1
 
 

        GW IRRIGATION     PERIOD    1   STEP   1
 
1
  VOLUMETRIC BUDGET FOR AGRICULTURAL FIELDS AT TIME STEP    1, STRESS PERIOD   1
  ------------------------------------------------------------------------------

     CUMULATIVE VOLUMES      L**3       RATES FOR THIS TIME STEP      L**3/T
     ------------------                 ------------------------

           IN:                                      IN:
           ---                                      ---
               AG WELLS  =           0.0000                 AG WELLS  =           0.0000
      DIVERSION SEGMENTS =           0.0000        DIVERSION SEGMENTS =           0.0000
           GW IRRIGATION =           0.0000             GW IRRIGATION =           0.0000
           SW IRRIGATION =           0.0000             SW IRRIGATION =           0.0000
        SYSTEM LOSSES GW =           0.0000          SYSTEM LOSSES GW =           0.0000
        SYSTEM LOSSES SW =           0.0000          SYSTEM LOSSES SW =           0.0000

                TOTAL IN =           0.0000                  TOTAL IN =           0.0000

          OUT:                                     OUT:
          ----                                     ----
               AG WELLS  =           0.0000                 AG WELLS  =           0.0000
      DIVERSION SEGMENTS =           0.0000        DIVERSION SEGMENTS =           0.0000
           GW IRRIGATION =           0.0000             GW IRRIGATION =           0.0000
           SW IRRIGATION =           0.0000             SW IRRIGATION =           0.0000
        SYSTEM LOSSES GW =           0.0000          SYSTEM LOSSES GW =           0.0000
        SYSTEM LOSSES SW =           0.0000          SYSTEM LOSSES SW =           0.0000

               TOTAL OUT =           0.0000                 TOTAL OUT =           0.0000

                IN - OUT =           0.0000                  IN - OUT =           0.0000

     PERCENT DISCREPANCY =           0.00         PERCENT DISCREPANCY =           0.00



1
              HEAD IN LAYER   1 AT END OF TIME STEP   1 IN STRESS PERIOD    1
  ---------------------------------------------------------------------------

           1       2       3       4       5       6       7       8       9      10
 ...................................................................................
   1  1032.36 1031.32 6999.00 6999.00 6999.00 6999.00 6999.00 6999.00 6999.00 6999.00
   2  1031.40 1030.17 1029.58 6999.00 6999.00 1030.68 1030.83 1030.79 6999.00 6999.00
   3  6999.00 1029.27 1028.96 1028.73 1029.28 1029.91 1030.40 1030.37 6999.00 6999.00
   4  1028.57 1028.53 1028.35 1028.17 1028.24 1028.30 1028.78 1029.83 1029.56 6999.00
   5  1028.13 1027.76 1027.59 1027.51 1027.61 1027.82 1027.99 1028.47 1029.10 1029.63
   6  1027.57 1027.02 1026.83 1026.81 1026.93 1027.26 1027.55 1028.08 1028.52 1029.45
   7  1027.07 1026.08 1025.92 1025.96 1026.14 1026.55 1026.98 1027.45 1027.96 6999.00
   8  6999.00 1024.71 1024.75 1024.91 1025.15 1025.65 1026.08 1026.80 1027.36 6999.00
   9  6999.00 1022.70 1023.03 1023.48 1023.88 1024.53 1025.05 1025.79 1026.91 6999.00
  10  6999.00 1019.87 1020.64 1021.69 1022.47 1023.49 1024.39 1025.46 1027.07 1027.71
  11  6999.00 1015.35 1016.78 1019.32 1020.96 1022.69 1024.22 1026.00 1028.19 6999.00
  12  1001.91 1007.94 1012.08 1016.04 1019.32 1022.30 1024.79 1028.19 1031.18 6999.00
  13   995.55 1000.38 1006.88 1012.86 1018.23 1022.75 1027.05 1031.79 1034.63 6999.00
  14  6999.00 1005.79 1008.88 1013.53 1018.29 1022.70 1027.60 1033.07 1037.48 6999.00
  15  6999.00 6999.00 1012.52 1015.24 1018.71 1021.73 6999.00 6999.00 6999.00 6999.00

 HEAD WILL BE SAVED ON UNIT   62 AT END OF TIME STEP    1, STRESS PERIOD    1
1
  VOLUMETRIC BUDGET FOR ENTIRE MODEL AT END OF TIME STEP    1, STRESS PERIOD   1
  ------------------------------------------------------------------------------

     CUMULATIVE VOLUMES      L**3       RATES FOR THIS TIME STEP      L**3/T
     ------------------                 ------------------------

           IN:                                      IN:
           ---                                      ---
             STORAGE     =           0.0000               STORAGE     =           0.0000
       CONSTANT HEAD     =           0.0000         CONSTANT HEAD     =           0.0000
     HEAD DEP BOUNDS     =       24677.5273       HEAD DEP BOUNDS     =           0.2856
      STREAM LEAKAGE     =      889333.8125        STREAM LEAKAGE     =          10.2932
        UZF RECHARGE     =       73223.9531          UZF RECHARGE     =           0.8475
               GW ET     =           0.0000                 GW ET     =           0.0000
     SURFACE LEAKAGE     =           0.0000       SURFACE LEAKAGE     =           0.0000
           AG WELLS      =           0.0000             AG WELLS      =           0.0000

                TOTAL IN =      987235.2500                  TOTAL IN =          11.4263

          OUT:                                     OUT:
          ----                                     ----
             STORAGE     =           0.0000               STORAGE     =           0.0000
       CONSTANT HEAD     =           0.0000         CONSTANT HEAD     =           0.0000
     HEAD DEP BOUNDS     =       24801.8652       HEAD DEP BOUNDS     =           0.2871
      STREAM LEAKAGE     =      962433.3125        STREAM LEAKAGE     =          11.1393
        UZF RECHARGE     =           0.0000          UZF RECHARGE     =           0.0000
               GW ET     =           0.0000                 GW ET     =           0.0000
     SURFACE LEAKAGE     =           0.0000       SURFACE LEAKAGE     =           0.0000
           AG WELLS      =           0.0000             AG WELLS      =           0.0000

               TOTAL OUT =      987235.1875                 TOTAL OUT =          11.4263

                IN - OUT =       6.2500E-02                  IN - OUT =       1.9073E-06

     PERCENT DISCREPANCY =           0.00         PERCENT DISCREPANCY =           0.00






         TIME SUMMARY AT END OF TIME STEP    1 IN STRESS PERIOD    1
                    SECONDS     MINUTES      HOURS       DAYS        YEARS
                    -----------------------------------------------------------
   TIME STEP LENGTH  86400.      1440.0      24.000      1.0000     2.73785E-03
 STRESS PERIOD TIME  86400.      1440.0      24.000      1.0000     2.73785E-03
         TOTAL TIME  86400.      1440.0      24.000      1.0000     2.73785E-03
1
1
                            STRESS PERIOD NO.    2, LENGTH =   2630000.    
                            -----------------------------------------------

                              NUMBER OF TIME STEPS =    30

                               MULTIPLIER FOR DELT =     1.000

                            INITIAL TIME STEP SIZE =   87666.66    

 REUSING NON-PARAMETER GHB CELLS FROM LAST STRESS PERIOD

      2 GHB CELLS

 REUSING STREAM SEGMENT DATA FROM LAST STRESS PERIOD



            AREAL INFILTRATION RATE
 READING ON UNIT   19 WITH FORMAT: (10F4.0)            

            1           2           3           4           5           6           7           8           9          10
 ........................................................................................................................
   1   1.2000E-09   0.000       0.000       0.000       0.000       0.000       0.000       0.000       0.000       0.000    
   2   2.1000E-09  2.0000E-09  8.0000E-10  8.5000E-09   0.000       0.000       0.000       0.000       0.000       0.000    
   3   5.0000E-10  1.1000E-09  8.8000E-09  5.5000E-09   0.000       0.000       0.000       0.000       0.000       0.000    
   4   8.5000E-09  1.1000E-09  1.1000E-09  1.1000E-09  2.0000E-09   0.000       0.000       0.000       0.000       0.000    
   5   8.5000E-09  1.1000E-09  1.1000E-09  1.1000E-09  1.1000E-09   0.000       0.000       0.000       0.000       0.000    
   6   8.5000E-09  5.2000E-09  2.1000E-09  1.1000E-09  1.5000E-09   0.000       0.000       0.000       0.000       0.000    
   7   8.5000E-09  5.2000E-09  2.1000E-09  1.2000E-09  2.0000E-09   0.000       0.000       0.000       0.000       0.000    
   8   5.0000E-10  5.2000E-09  2.1000E-09  1.2000E-09  5.0000E-09   0.000       0.000       0.000       0.000       0.000    
   9   5.0000E-10  5.2000E-09  2.1000E-09  1.2000E-09  5.0000E-09   0.000       0.000       0.000       0.000       0.000    
  10   5.0000E-10  5.2000E-09  2.1000E-09  1.2000E-09  5.8000E-09   0.000       0.000       0.000       0.000       0.000    
  11   1.0000E-10  1.1000E-09  1.1000E-09  1.2000E-09  5.0000E-09   0.000       0.000       0.000       0.000       0.000    
  12   1.1000E-09  1.1000E-09  1.1000E-09  1.1000E-09  2.0000E-09   0.000       0.000       0.000       0.000       0.000    
  13   1.1000E-09  2.2000E-09  2.2000E-09  2.1000E-09  1.0000E-09   0.000       0.000       0.000       0.000       0.000    
  14   2.0000E-10  5.5000E-09  5.5000E-09  5.2000E-09  1.0000E-09   0.000       0.000       0.000       0.000       0.000    
  15    0.000      8.8000E-09  8.8000E-09   0.000       0.000       0.000       0.000       0.000       0.000       0.000    

                  ET RATE =  5.000000E-10

 USING ET EXTINCTION DEPTH FROM PREVIOUS STRESS PERIOD. CURRENT PERIOD IS:       2

 USING EXTINCTION WATER CONTENT FROM PREVIOUS STRESS PERIOD. CURRENT PERIOD IS:       2

 USING AIR ENTRY PRESSURE FROM PREVIOUS STRESS PERIOD. CURRENT PERIOD IS:       2

 USING ROOT PRESSURE HEAD FROM PREVIOUS STRESS PERIOD. CURRENT PERIOD IS:       2

 USING ROOT ACTIVITY FROM PREVIOUS STRESS PERIOD. CURRENT PERIOD IS:       2

 PROCESSING AG STRESS PERIOD DATA

 READING AG STRESS PERIOD DATA

 READING IRRIGATION SEGMENT

 READING IRRIGATION WELL

 READING SUPPLEMENTAL WELL

 END PROCESSING AG STRESS PERIOD DATA OPTIONS
 
 SOLVING FOR HEAD 
                                                   Max.-Head-Change                         Max.-Flux-Residual
  Residual-Control   Outer-Iter.   Inner-Iter.     Column Row Layer    Maximum-Head-Change  Column Row Layer    Maximum-Flux-Residual          L2-NORM 
          0                 1           2             4   13     1       0.4516090521E-02       4   13    1         0.2587981320E+00      0.5589996200E+00
          0                 2           2             4   13     1      -0.4346343863E-03       4   13    1        -0.2560894401E-01      0.5485536502E-01
          0                 3           1             4   13     1       0.2895109903E-04       4   13    1         0.1753708056E-02      0.3737779858E-02

    ------------------------------------------------
       NWT REQUIRED            3 OUTER ITERATIONS 
       AND A TOTAL OF          5 INNER ITERATIONS.
    ------------------------------------------------

 OUTPUT CONTROL FOR STRESS PERIOD    2   TIME STEP    1
    PRINT BUDGET
    PRINT HEAD FOR ALL LAYERS
    SAVE BUDGET
 UBDSV1 SAVING "         STORAGE" ON UNIT 102 AT TIME STEP  1, STRESS PERIOD   2
 UBDSV2 SAVING "   CONSTANT HEAD" ON UNIT 102 AT TIME STEP  1, STRESS PERIOD   2
 UBDSV1 SAVING "FLOW RIGHT FACE " ON UNIT 102 AT TIME STEP  1, STRESS PERIOD   2
 UBDSV1 SAVING "FLOW FRONT FACE " ON UNIT 102 AT TIME STEP  1, STRESS PERIOD   2

  HEAD DEP BOUNDS   PERIOD    2   STEP     1
 BOUNDARY      1   LAYER   1   ROW    13   COL     1   RATE   -0.287146    
 BOUNDARY      2   LAYER   1   ROW    14   COL     9   RATE    0.285621    



 STREAM LISTING     PERIOD      2   STEP        1

 LAYER ROW COL. STREAM  RCH.  FLOW INTO     FLOW TO   FLOW OUT OF   OVRLND.     DIRECT     STREAM       STREAM     STREAM     STREAM   STREAMBED  STREAMBED
                SEG.NO.  NO.  STRM. RCH.    AQUIFER    STRM. RCH.    RUNOFF     PRECIP       ET          HEAD       DEPTH      WIDTH   CONDCTNC.   GRADIENT

   1    1    1     1     1    1.6500E+01  1.9759E-01   1.6302E+01  0.000E+00  0.000E+00  0.000E+00  1.09409E+03  1.039E+00  1.087E+01  4.893E-02  1.346E+00
   1    2    2     1     2    1.6302E+01  3.0466E-01   1.5998E+01  0.000E+00  0.000E+00  0.000E+00  1.08909E+03  1.034E+00  1.079E+01  7.552E-02  1.345E+00
   1    3    3     1     3    1.5998E+01  2.5853E-01   1.5739E+01  0.000E+00  0.000E+00  0.000E+00  1.08345E+03  1.029E+00  1.070E+01  6.417E-02  1.343E+00
   1    3    4     1     4    1.5739E+01  2.3700E-01   1.5502E+01  0.000E+00  0.000E+00  0.000E+00  1.07843E+03  1.024E+00  1.061E+01  5.889E-02  1.341E+00
   1    4    5     2     1    1.3502E+01  2.9865E-01   1.3204E+01  0.000E+00  0.000E+00  0.000E+00  1.07276E+03  8.289E-01  1.200E+01  7.800E-02  1.276E+00
   1    5    6     2     2    1.3204E+01  2.2914E-01   1.2974E+01  0.000E+00  0.000E+00  0.000E+00  1.06733E+03  8.190E-01  1.200E+01  6.000E-02  1.273E+00
   1    6    6     2     3    1.2974E+01  2.2862E-01   1.2746E+01  0.000E+00  0.000E+00  0.000E+00  1.06260E+03  8.104E-01  1.200E+01  6.000E-02  1.270E+00
   1    7    6     2     4    1.2746E+01  2.2810E-01   1.2518E+01  0.000E+00  0.000E+00  0.000E+00  1.05788E+03  8.017E-01  1.200E+01  6.000E-02  1.267E+00
   1    8    6     2     5    1.2518E+01  2.2758E-01   1.2290E+01  0.000E+00  0.000E+00  0.000E+00  1.05315E+03  7.930E-01  1.200E+01  6.000E-02  1.264E+00
   1    3    5     3     1    2.0000E+00  2.8252E-01   1.7175E+00  0.000E+00  0.000E+00  0.000E+00  1.07555E+03  1.909E+00  9.636E+00  7.227E-02  1.955E+00
   1    3    6     3     2    1.7175E+00  2.4905E-01   1.4684E+00  0.000E+00  0.000E+00  0.000E+00  1.07264E+03  1.727E+00  8.909E+00  6.682E-02  1.864E+00
   1    3    7     3     3    1.4684E+00  1.9718E-01   1.2712E+00  0.000E+00  0.000E+00  0.000E+00  1.06987E+03  1.555E+00  8.218E+00  5.547E-02  1.777E+00
   1    4    8     3     4    1.2712E+00  2.2567E-01   1.0456E+00  0.000E+00  0.000E+00  0.000E+00  1.06682E+03  1.364E+00  7.455E+00  6.709E-02  1.682E+00
   1    5    8     3     5    1.0456E+00  1.5790E-01   8.8768E-01  0.000E+00  0.000E+00  0.000E+00  1.06362E+03  1.164E+00  6.655E+00  4.991E-02  1.582E+00
   1    6    8     3     6    8.8768E-01  5.5980E-02   8.3170E-01  0.000E+00  0.000E+00  0.000E+00  1.06158E+03  1.036E+00  6.145E+00  1.844E-02  1.518E+00
   1    5   10     4     1    1.0000E+01  9.0919E-02   9.9091E+00  0.000E+00  0.000E+00  0.000E+00  1.07836E+03  6.368E-01  1.000E+01  2.500E-02  1.212E+00
   1    5    9     4     2    9.9091E+00  1.8158E-01   9.7275E+00  0.000E+00  0.000E+00  0.000E+00  1.07154E+03  6.315E-01  1.000E+01  5.000E-02  1.211E+00
   1    6    8     4     3    9.7275E+00  1.2689E-01   9.6006E+00  0.000E+00  0.000E+00  0.000E+00  1.06381E+03  6.256E-01  1.000E+01  3.500E-02  1.209E+00
   1    6    8     5     1    1.0432E+01  2.2686E-01   1.0205E+01  0.000E+00  0.000E+00  0.000E+00  1.05868E+03  6.790E-01  1.542E+01  6.166E-02  1.226E+00
   1    7    7     5     2    1.0205E+01  2.7894E-01   9.9265E+00  0.000E+00  0.000E+00  0.000E+00  1.05417E+03  6.732E-01  1.519E+01  7.594E-02  1.224E+00
   1    8    7     5     3    9.9265E+00  1.9221E-01   9.7343E+00  0.000E+00  0.000E+00  0.000E+00  1.04992E+03  6.676E-01  1.497E+01  5.241E-02  1.223E+00
   1    8    6     5     4    9.7343E+00  1.3577E-01   9.5985E+00  0.000E+00  0.000E+00  0.000E+00  1.04691E+03  6.637E-01  1.482E+01  3.706E-02  1.221E+00
   1    9    6     6     1    2.1889E+01  2.4742E-01   2.1641E+01  0.000E+00  0.000E+00  0.000E+00  1.04385E+03  1.124E+00  1.200E+01  6.000E-02  1.375E+00
   1   10    7     6     2    2.1641E+01  2.4696E-01   2.1394E+01  0.000E+00  0.000E+00  0.000E+00  1.03930E+03  1.116E+00  1.200E+01  6.000E-02  1.372E+00
   1   11    7     6     3    2.1394E+01  2.4650E-01   2.1148E+01  0.000E+00  0.000E+00  0.000E+00  1.03474E+03  1.108E+00  1.200E+01  6.000E-02  1.369E+00
   1   12    7     6     4    2.1148E+01  2.4603E-01   2.0902E+01  0.000E+00  0.000E+00  0.000E+00  1.03019E+03  1.101E+00  1.200E+01  6.000E-02  1.367E+00
   1   13    7     6     5    2.0902E+01 -1.0396E-02   2.0912E+01  0.000E+00  0.000E+00  0.000E+00  1.02701E+03  1.097E+00  1.200E+01  2.400E-01 -1.444E-02
   1   14    9     7     1    1.5000E+02  1.3338E+00   1.4867E+02  0.000E+00  0.000E+00  0.000E+00  1.03987E+03  2.288E+00  5.529E+01  5.593E-01  7.949E-01
   1   13    8     7     2    1.4867E+02  1.8355E+00   1.4683E+02  0.000E+00  0.000E+00  0.000E+00  1.03478E+03  2.279E+00  5.526E+01  6.148E-01  9.952E-01
   1   13    7     7     3    1.4683E+02  1.4746E+00   1.4536E+02  0.000E+00  0.000E+00  0.000E+00  1.02969E+03  2.270E+00  5.522E+01  5.585E-01  8.802E-01
   1   13    6     8     1    1.6627E+02  8.8653E-01   1.6538E+02  0.000E+00  0.000E+00  0.000E+00  1.02480E+03  2.925E+00  4.241E+01  4.322E-01  6.838E-01
   1   13    5     8     2    1.6538E+02  1.3805E-01   1.6524E+02  0.000E+00  0.000E+00  0.000E+00  1.01855E+03  2.921E+00  4.236E+01  4.317E-01  1.066E-01
   1   13    4     8     3    1.6524E+02 -2.4329E+00   1.6768E+02  0.000E+00  0.000E+00  0.000E+00  1.01230E+03  2.929E+00  4.247E+01  4.328E+00 -1.874E-01
   1   13    3     8     4    1.6768E+02 -3.5424E+00   1.7122E+02  0.000E+00  0.000E+00  0.000E+00  1.00607E+03  2.949E+00  4.275E+01  4.357E+00 -2.710E-01
   1   13    2     8     5    1.7122E+02 -2.3687E+00   1.7359E+02  0.000E+00  0.000E+00  0.000E+00  9.99843E+02  2.968E+00  4.303E+01  4.385E+00 -1.800E-01
   1   13    1     8     6    1.7359E+02 -1.8506E+00   1.7544E+02  0.000E+00  0.000E+00  0.000E+00  9.94856E+02  2.981E+00  4.323E+01  2.643E+00 -2.334E-01
   1    8    6     9     1    0.0000E+00  0.0000E+00   0.0000E+00  0.000E+00  0.000E+00  0.000E+00  1.07875E+03  0.000E+00  4.000E+00  0.000E+00  1.000E+00
   1    8    5     9     2    0.0000E+00  0.0000E+00   0.0000E+00  0.000E+00  0.000E+00  0.000E+00  1.07825E+03  0.000E+00  4.000E+00  0.000E+00  1.000E+00



 UBDSV3 SAVING "           GW ET" ON UNIT  61 AT TIME STEP  1, STRESS PERIOD   2
 UBDSV3 SAVING "    UZF RECHARGE" ON UNIT  61 AT TIME STEP  1, STRESS PERIOD   2
 UBDSV3 SAVING " SURFACE LEAKAGE" ON UNIT  61 AT TIME STEP  1, STRESS PERIOD   2
 UBDSV3 SAVING "       HORT+DUNN" ON UNIT  61 AT TIME STEP  1, STRESS PERIOD   2
 UBDSV3 SAVING "  STORAGE CHANGE" ON UNIT  61 AT TIME STEP  1, STRESS PERIOD   2


UNSATURATED ZONE PACKAGE VOLUMETRIC BUDGET FOR  TIME STEP     1 STRESS PERIOD    2
  ------------------------------------------------------------------------------



     CUMULATIVE VOLUMES      L**3       RATES FOR THIS TIME STEP      L**3/T
     ------------------                 ------------------------

           IN:                                      IN:
           ---                                      ---
        INFILTRATION =      459614.8186          INFILTRATION =           4.4075

          OUT:                                     OUT:
          ----                                     ----
              UZF ET =       63558.2764                UZF ET =           0.7250
        UZF RECHARGE =       73224.0000          UZF RECHARGE =       0.0000E+00

            IN - OUT =      322832.5422              IN - OUT =           3.6825

          STORAGE:                                 STORAGE:
          --------                                 --------
      STORAGE CHANGE =      322832.5409        STORAGE CHANGE =           3.6825

 PERCENT DISCREPANCY IS DIFFERENCE BETWEEN IN-OUT MINUS CHANGE IN STORAGE
 DIVIDED BY THE AVERAGE OF IN AND OUT TIMES 100

 PERCENT DISCREPANCY =           0.00     PERCENT DISCREPANCY =           0.00






 

            AG WELLS      PERIOD    2   STEP   1
 AG WELL      1   LAYER   1   ROW     6   COL     4   RATE     0.00000    
 AG WELL      2   LAYER   1   ROW     6   COL     5   RATE     0.00000    
 AG WELL      3   LAYER   1   ROW     7   COL     4   RATE     0.00000    
 AG WELL      4   LAYER   1   ROW     7   COL     5   RATE     0.00000    
 AG WELL      5   LAYER   1   ROW     8   COL     4   RATE     0.00000    
 AG WELL      6   LAYER   1   ROW     8   COL     5   RATE     0.00000    
 
 

   DIVERSION SEGMENTS     PERIOD    2   STEP   1
 
 

        SW IRRIGATION     PERIOD    2   STEP   1
 
 

        GW IRRIGATION     PERIOD    2   STEP   1
 
1
  VOLUMETRIC BUDGET FOR AGRICULTURAL FIELDS AT TIME STEP    1, STRESS PERIOD   2
  ------------------------------------------------------------------------------

     CUMULATIVE VOLUMES      L**3       RATES FOR THIS TIME STEP      L**3/T
     ------------------                 ------------------------

           IN:                                      IN:
           ---                                      ---
               AG WELLS  =           0.0000                 AG WELLS  =           0.0000
      DIVERSION SEGMENTS =           0.0000        DIVERSION SEGMENTS =           0.0000
           GW IRRIGATION =           0.0000             GW IRRIGATION =           0.0000
           SW IRRIGATION =           0.0000             SW IRRIGATION =           0.0000
        SYSTEM LOSSES GW =           0.0000          SYSTEM LOSSES GW =           0.0000
        SYSTEM LOSSES SW =           0.0000          SYSTEM LOSSES SW =           0.0000

                TOTAL IN =           0.0000                  TOTAL IN =           0.0000

          OUT:                                     OUT:
          ----                                     ----
               AG WELLS  =           0.0000                 AG WELLS  =           0.0000
      DIVERSION SEGMENTS =           0.0000        DIVERSION SEGMENTS =           0.0000
           GW IRRIGATION =           0.0000             GW IRRIGATION =           0.0000
           SW IRRIGATION =           0.0000             SW IRRIGATION =           0.0000
        SYSTEM LOSSES GW =           0.0000          SYSTEM LOSSES GW =           0.0000
        SYSTEM LOSSES SW =           0.0000          SYSTEM LOSSES SW =           0.0000

               TOTAL OUT =           0.0000                 TOTAL OUT =           0.0000

                IN - OUT =           0.0000                  IN - OUT =           0.0000

     PERCENT DISCREPANCY =           0.00         PERCENT DISCREPANCY =           0.00



1
              HEAD IN LAYER   1 AT END OF TIME STEP   1 IN STRESS PERIOD    2
  ---------------------------------------------------------------------------

           1       2       3       4       5       6       7       8       9      10
 ...................................................................................
   1  1032.36 1031.32 6999.00 6999.00 6999.00 6999.00 6999.00 6999.00 6999.00 6999.00
   2  1031.40 1030.17 1029.58 6999.00 6999.00 1030.68 1030.83 1030.79 6999.00 6999.00
   3  6999.00 1029.27 1028.96 1028.74 1029.28 1029.91 1030.40 1030.37 6999.00 6999.00
   4  1028.57 1028.53 1028.35 1028.17 1028.24 1028.30 1028.78 1029.83 1029.56 6999.00
   5  1028.13 1027.76 1027.59 1027.51 1027.61 1027.82 1027.99 1028.47 1029.10 1029.63
   6  1027.57 1027.02 1026.83 1026.81 1026.93 1027.26 1027.55 1028.08 1028.52 1029.45
   7  1027.07 1026.08 1025.92 1025.96 1026.14 1026.55 1026.98 1027.45 1027.96 6999.00
   8  6999.00 1024.71 1024.75 1024.91 1025.15 1025.65 1026.08 1026.80 1027.36 6999.00
   9  6999.00 1022.70 1023.03 1023.48 1023.88 1024.53 1025.05 1025.79 1026.91 6999.00
  10  6999.00 1019.87 1020.64 1021.69 1022.47 1023.49 1024.39 1025.46 1027.07 1027.71
  11  6999.00 1015.35 1016.78 1019.32 1020.96 1022.69 1024.22 1026.00 1028.19 6999.00
  12  1001.91 1007.94 1012.08 1016.04 1019.32 1022.30 1024.79 1028.19 1031.18 6999.00
  13   995.56 1000.38 1006.89 1012.87 1018.23 1022.75 1027.05 1031.79 1034.63 6999.00
  14  6999.00 1005.79 1008.88 1013.53 1018.29 1022.70 1027.60 1033.07 1037.48 6999.00
  15  6999.00 6999.00 1012.52 1015.24 1018.71 1021.73 6999.00 6999.00 6999.00 6999.00
1
  VOLUMETRIC BUDGET FOR ENTIRE MODEL AT END OF TIME STEP    1, STRESS PERIOD   2
  ------------------------------------------------------------------------------

     CUMULATIVE VOLUMES      L**3       RATES FOR THIS TIME STEP      L**3/T
     ------------------                 ------------------------

           IN:                                      IN:
           ---                                      ---
             STORAGE     =       66736.4922               STORAGE     =           0.7613
       CONSTANT HEAD     =           0.0000         CONSTANT HEAD     =           0.0000
     HEAD DEP BOUNDS     =       49716.9844       HEAD DEP BOUNDS     =           0.2856
      STREAM LEAKAGE     =     1877049.7500        STREAM LEAKAGE     =          11.2667
        UZF RECHARGE     =       73223.9531          UZF RECHARGE     =           0.0000
               GW ET     =           0.0000                 GW ET     =           0.0000
     SURFACE LEAKAGE     =           0.0000       SURFACE LEAKAGE     =           0.0000
           AG WELLS      =           0.0000             AG WELLS      =           0.0000

                TOTAL IN =     2066727.2500                  TOTAL IN =          12.3136

          OUT:                                     OUT:
          ----                                     ----
             STORAGE     =      159711.2812               STORAGE     =           1.8218
       CONSTANT HEAD     =           0.0000         CONSTANT HEAD     =           0.0000
     HEAD DEP BOUNDS     =       49975.0312       HEAD DEP BOUNDS     =           0.2871
      STREAM LEAKAGE     =     1857066.8750        STREAM LEAKAGE     =          10.2049
        UZF RECHARGE     =           0.0000          UZF RECHARGE     =           0.0000
               GW ET     =           0.0000                 GW ET     =           0.0000
     SURFACE LEAKAGE     =           0.0000       SURFACE LEAKAGE     =           0.0000
           AG WELLS      =           0.0000             AG WELLS      =           0.0000

               TOTAL OUT =     2066753.2500                 TOTAL OUT =          12.3139

                IN - OUT =         -26.0000                  IN - OUT =      -2.9755E-04

     PERCENT DISCREPANCY =          -0.00         PERCENT DISCREPANCY =          -0.00






         TIME SUMMARY AT END OF TIME STEP    1 IN STRESS PERIOD    2
                    SECONDS     MINUTES      HOURS       DAYS        YEARS
                    -----------------------------------------------------------
   TIME STEP LENGTH  87667.      1461.1      24.352      1.0147     2.77799E-03
 STRESS PERIOD TIME  87667.      1461.1      24.352      1.0147     2.77799E-03
         TOTAL TIME 1.74067E+05  2901.1      48.352      2.0147     5.51584E-03
1
 
 SOLVING FOR HEAD 
                                                   Max.-Head-Change                         Max.-Flux-Residual
  Residual-Control   Outer-Iter.   Inner-Iter.     Column Row Layer    Maximum-Head-Change  Column Row Layer    Maximum-Flux-Residual          L2-NORM 
          0                 1           2             2   13     1       0.4141604067E-02       4   13    1         0.2347421644E+00      0.5289478646E+00
          0                 2           2             4   13     1      -0.3943921141E-03       4   13    1        -0.2322508993E-01      0.5195277974E-01
          0                 3           1             4   13     1       0.2644842864E-04       4   13    1         0.1601340582E-02      0.3548358795E-02

    ------------------------------------------------
       NWT REQUIRED            3 OUTER ITERATIONS 
       AND A TOTAL OF          5 INNER ITERATIONS.
    ------------------------------------------------

 NO OUTPUT CONTROL FOR STRESS PERIOD    2   TIME STEP    2
 
 SOLVING FOR HEAD 
                                                   Max.-Head-Change                         Max.-Flux-Residual
  Residual-Control   Outer-Iter.   Inner-Iter.     Column Row Layer    Maximum-Head-Change  Column Row Layer    Maximum-Flux-Residual          L2-NORM 
          0                 1           2             2   13     1       0.3838451722E-02       2   13    1         0.2157898443E+00      0.5018947223E+00
          0                 2           2             4   13     1      -0.3580860464E-03       4   13    1        -0.2107510957E-01      0.4934276730E-01
          0                 3           1             4   13     1       0.2403484716E-04       4   13    1         0.1454379058E-02      0.3375977545E-02

    ------------------------------------------------
       NWT REQUIRED            3 OUTER ITERATIONS 
       AND A TOTAL OF          5 INNER ITERATIONS.
    ------------------------------------------------

 NO OUTPUT CONTROL FOR STRESS PERIOD    2   TIME STEP    3
 
 SOLVING FOR HEAD 
                                                   Max.-Head-Change                         Max.-Flux-Residual
  Residual-Control   Outer-Iter.   Inner-Iter.     Column Row Layer    Maximum-Head-Change  Column Row Layer    Maximum-Flux-Residual          L2-NORM 
          0                 1           2             2   13     1       0.3557559587E-02       2   13    1         0.1999768401E+00      0.4775469808E+00
          0                 2           2             2   13     1      -0.3313317856E-03       2   13    1        -0.1914529669E-01      0.4698879784E-01
          0                 3           1             4   13     1       0.2180721347E-04       4   13    1         0.1318793073E-02      0.3217700760E-02

    ------------------------------------------------
       NWT REQUIRED            3 OUTER ITERATIONS 
       AND A TOTAL OF          5 INNER ITERATIONS.
    ------------------------------------------------

 NO OUTPUT CONTROL FOR STRESS PERIOD    2   TIME STEP    4
 
 SOLVING FOR HEAD 
                                                   Max.-Head-Change                         Max.-Flux-Residual
  Residual-Control   Outer-Iter.   Inner-Iter.     Column Row Layer    Maximum-Head-Change  Column Row Layer    Maximum-Flux-Residual          L2-NORM 
          0                 1           2             2   13     1       0.3297604685E-02       2   13    1         0.1853435845E+00      0.4556415430E+00
          0                 2           2             2    2     1      -0.3075700726E-03       2   13    1        -0.1774964558E-01      0.4487548817E-01
          0                 3           1             2    2     1       0.2094437751E-04       4   13    1         0.1198174047E-02      0.3076929403E-02

    ------------------------------------------------
       NWT REQUIRED            3 OUTER ITERATIONS 
       AND A TOTAL OF          5 INNER ITERATIONS.
    ------------------------------------------------

 NO OUTPUT CONTROL FOR STRESS PERIOD    2   TIME STEP    5
 
 SOLVING FOR HEAD 
                                                   Max.-Head-Change                         Max.-Flux-Residual
  Residual-Control   Outer-Iter.   Inner-Iter.     Column Row Layer    Maximum-Head-Change  Column Row Layer    Maximum-Flux-Residual          L2-NORM 
          0                 1           2             2    2     1       0.3137740412E-02       2   13    1         0.1717992485E+00      0.4359362745E+00
          0                 2           2             2    2     1      -0.3052170142E-03       2   13    1        -0.1645865069E-01      0.4297630026E-01
          0                 3           1             2    2     1       0.2078414308E-04       2    2    1         0.1148336413E-02      0.2950597531E-02

    ------------------------------------------------
       NWT REQUIRED            3 OUTER ITERATIONS 
       AND A TOTAL OF          5 INNER ITERATIONS.
    ------------------------------------------------

 NO OUTPUT CONTROL FOR STRESS PERIOD    2   TIME STEP    6
 
 SOLVING FOR HEAD 
                                                   Max.-Head-Change                         Max.-Flux-Residual
  Residual-Control   Outer-Iter.   Inner-Iter.     Column Row Layer    Maximum-Head-Change  Column Row Layer    Maximum-Flux-Residual          L2-NORM 
          0                 1           2             2    2     1       0.3113901219E-02       2    2    1         0.1627934591E+00      0.4182063023E+00
          0                 2           2             2    2     1      -0.3028981017E-03       2    2    1        -0.1627937418E-01      0.4126813743E-01
          0                 3           1             2    2     1       0.2062623349E-04       2    2    1         0.1139556415E-02      0.2837809020E-02

    ------------------------------------------------
       NWT REQUIRED            3 OUTER ITERATIONS 
       AND A TOTAL OF          5 INNER ITERATIONS.
    ------------------------------------------------

 NO OUTPUT CONTROL FOR STRESS PERIOD    2   TIME STEP    7
 
 SOLVING FOR HEAD 
                                                   Max.-Head-Change                         Max.-Flux-Residual
  Residual-Control   Outer-Iter.   Inner-Iter.     Column Row Layer    Maximum-Head-Change  Column Row Layer    Maximum-Flux-Residual          L2-NORM 
          0                 1           2             2    2     1       0.3090495551E-02       2    2    1         0.1615619536E+00      0.4022459845E+00
          0                 2           2             2    2     1      -0.3006213598E-03       2    2    1        -0.1615622306E-01      0.3973071059E-01
          0                 3           1             2    2     1       0.2047119617E-04       2    2    1         0.1130935852E-02      0.2735708798E-02

    ------------------------------------------------
       NWT REQUIRED            3 OUTER ITERATIONS 
       AND A TOTAL OF          5 INNER ITERATIONS.
    ------------------------------------------------

 NO OUTPUT CONTROL FOR STRESS PERIOD    2   TIME STEP    8
 
 SOLVING FOR HEAD 
                                                   Max.-Head-Change                         Max.-Flux-Residual
  Residual-Control   Outer-Iter.   Inner-Iter.     Column Row Layer    Maximum-Head-Change  Column Row Layer    Maximum-Flux-Residual          L2-NORM 
          0                 1           2             2    2     1       0.3067343233E-02       2    2    1         0.1603438620E+00      0.3878711226E+00
          0                 2           2             2    2     1      -0.2983692623E-03       2    2    1        -0.1603441335E-01      0.3834542087E-01
          0                 3           1             2    2     1       0.2031783686E-04       2    2    1         0.1122409173E-02      0.2642671797E-02

    ------------------------------------------------
       NWT REQUIRED            3 OUTER ITERATIONS 
       AND A TOTAL OF          5 INNER ITERATIONS.
    ------------------------------------------------

 NO OUTPUT CONTROL FOR STRESS PERIOD    2   TIME STEP    9
 
 SOLVING FOR HEAD 
                                                   Max.-Head-Change                         Max.-Flux-Residual
  Residual-Control   Outer-Iter.   Inner-Iter.     Column Row Layer    Maximum-Head-Change  Column Row Layer    Maximum-Flux-Residual          L2-NORM 
          0                 1           2             2    2     1       0.3044526459E-02       2    2    1         0.1591434383E+00      0.3749194505E+00
          0                 2           2             2    2     1      -0.2961498038E-03       2    2    1        -0.1591437041E-01      0.3709815521E-01
          0                 3           1             2    2     1       0.2016669991E-04       2    2    1         0.1114006163E-02      0.2560264876E-02

    ------------------------------------------------
       NWT REQUIRED            3 OUTER ITERATIONS 
       AND A TOTAL OF          5 INNER ITERATIONS.
    ------------------------------------------------

 NO OUTPUT CONTROL FOR STRESS PERIOD    2   TIME STEP   10
 
 SOLVING FOR HEAD 
                                                   Max.-Head-Change                         Max.-Flux-Residual
  Residual-Control   Outer-Iter.   Inner-Iter.     Column Row Layer    Maximum-Head-Change  Column Row Layer    Maximum-Flux-Residual          L2-NORM 
          0                 1           2             2    2     1       0.3021953028E-02       2    2    1         0.1579558800E+00      0.3632348403E+00
          0                 2           2             2    2     1      -0.2939540159E-03       2    2    1        -0.1579561404E-01      0.3597264143E-01
          0                 3           1             2    2     1       0.2001717447E-04       2    2    1         0.1105693200E-02      0.2485321935E-02

    ------------------------------------------------
       NWT REQUIRED            3 OUTER ITERATIONS 
       AND A TOTAL OF          5 INNER ITERATIONS.
    ------------------------------------------------

 NO OUTPUT CONTROL FOR STRESS PERIOD    2   TIME STEP   11
 
 SOLVING FOR HEAD 
                                                   Max.-Head-Change                         Max.-Flux-Residual
  Residual-Control   Outer-Iter.   Inner-Iter.     Column Row Layer    Maximum-Head-Change  Column Row Layer    Maximum-Flux-Residual          L2-NORM 
          0                 1           2             2    2     1       0.2999790039E-02       2    2    1         0.1567898805E+00      0.3526755102E+00
          0                 2           2             2    2     1      -0.2917981541E-03       2    2    1        -0.1567901358E-01      0.3495648231E-01
          0                 3           1             2    2     1       0.1987036864E-04       2    2    1         0.1097531184E-02      0.2417810200E-02

    ------------------------------------------------
       NWT REQUIRED            3 OUTER ITERATIONS 
       AND A TOTAL OF          5 INNER ITERATIONS.
    ------------------------------------------------

 NO OUTPUT CONTROL FOR STRESS PERIOD    2   TIME STEP   12
 
 SOLVING FOR HEAD 
                                                   Max.-Head-Change                         Max.-Flux-Residual
  Residual-Control   Outer-Iter.   Inner-Iter.     Column Row Layer    Maximum-Head-Change  Column Row Layer    Maximum-Flux-Residual          L2-NORM 
          0                 1           2             2    2     1       0.2977861985E-02       2    2    1         0.1556363428E+00      0.3431290732E+00
          0                 2           2             2    2     1      -0.2896651447E-03       2    2    1        -0.1556365931E-01      0.3403420194E-01
          0                 3           1             2    2     1       0.1972511894E-04       2    2    1         0.1089456382E-02      0.2356634596E-02

    ------------------------------------------------
       NWT REQUIRED            3 OUTER ITERATIONS 
       AND A TOTAL OF          5 INNER ITERATIONS.
    ------------------------------------------------

 NO OUTPUT CONTROL FOR STRESS PERIOD    2   TIME STEP   13
 
 SOLVING FOR HEAD 
                                                   Max.-Head-Change                         Max.-Flux-Residual
  Residual-Control   Outer-Iter.   Inner-Iter.     Column Row Layer    Maximum-Head-Change  Column Row Layer    Maximum-Flux-Residual          L2-NORM 
          0                 1           2             2    2     1       0.2956249451E-02       2    2    1         0.1544993958E+00      0.3344812589E+00
          0                 2           2             2    2     1      -0.2875628271E-03       2    2    1        -0.1544996412E-01      0.3320172279E-01
          0                 3           1             2    2     1       0.1958195883E-04       2    2    1         0.1081497722E-02      0.2301493628E-02

    ------------------------------------------------
       NWT REQUIRED            3 OUTER ITERATIONS 
       AND A TOTAL OF          5 INNER ITERATIONS.
    ------------------------------------------------

 NO OUTPUT CONTROL FOR STRESS PERIOD    2   TIME STEP   14
 
 SOLVING FOR HEAD 
                                                   Max.-Head-Change                         Max.-Flux-Residual
  Residual-Control   Outer-Iter.   Inner-Iter.     Column Row Layer    Maximum-Head-Change  Column Row Layer    Maximum-Flux-Residual          L2-NORM 
          0                 1           2             2    2     1       0.2934946924E-02       2    2    1         0.1533788083E+00      0.3266290391E+00
          0                 2           2             2    2     1      -0.2854906645E-03       2    2    1        -0.1533790486E-01      0.3244578659E-01
          0                 3           1             2    2     1       0.1944085210E-04       2    2    1         0.1073653580E-02      0.2253271663E-02

    ------------------------------------------------
       NWT REQUIRED            3 OUTER ITERATIONS 
       AND A TOTAL OF          5 INNER ITERATIONS.
    ------------------------------------------------

 NO OUTPUT CONTROL FOR STRESS PERIOD    2   TIME STEP   15
 
 SOLVING FOR HEAD 
                                                   Max.-Head-Change                         Max.-Flux-Residual
  Residual-Control   Outer-Iter.   Inner-Iter.     Column Row Layer    Maximum-Head-Change  Column Row Layer    Maximum-Flux-Residual          L2-NORM 
          0                 1           2             2    2     1       0.2913949701E-02       2    2    1         0.1522742942E+00      0.3194883970E+00
          0                 2           2             2    2     1      -0.2834482001E-03       2    2    1        -0.1522745299E-01      0.3175458754E-01
          0                 3           1             2    2     1       0.1930176821E-04       2    2    1         0.1065921939E-02      0.2202108134E-02

    ------------------------------------------------
       NWT REQUIRED            3 OUTER ITERATIONS 
       AND A TOTAL OF          5 INNER ITERATIONS.
    ------------------------------------------------

 NO OUTPUT CONTROL FOR STRESS PERIOD    2   TIME STEP   16
 
 SOLVING FOR HEAD 
                                                   Max.-Head-Change                         Max.-Flux-Residual
  Residual-Control   Outer-Iter.   Inner-Iter.     Column Row Layer    Maximum-Head-Change  Column Row Layer    Maximum-Flux-Residual          L2-NORM 
          0                 1           2             2    2     1       0.2893252802E-02       2    2    1         0.1511856099E+00      0.3129773638E+00
          0                 2           2             2    2     1      -0.2814349494E-03       2    2    1        -0.1511858410E-01      0.3112425761E-01
          0                 3           1             2    2     1       0.1916467332E-04       2    2    1         0.1058301126E-02      0.2162372807E-02

    ------------------------------------------------
       NWT REQUIRED            3 OUTER ITERATIONS 
       AND A TOTAL OF          5 INNER ITERATIONS.
    ------------------------------------------------

 NO OUTPUT CONTROL FOR STRESS PERIOD    2   TIME STEP   17
 
 SOLVING FOR HEAD 
                                                   Max.-Head-Change                         Max.-Flux-Residual
  Residual-Control   Outer-Iter.   Inner-Iter.     Column Row Layer    Maximum-Head-Change  Column Row Layer    Maximum-Flux-Residual          L2-NORM 
          0                 1           2             2    2     1       0.2872764618E-02       2    2    1         0.1501079641E+00      0.3070291294E+00
          0                 2           2             2    2     1      -0.2794420010E-03       2    2    1        -0.1501081909E-01      0.3054880097E-01
          0                 3           1             2    2     1       0.1902896085E-04       2    2    1         0.1050757575E-02      0.2123802106E-02

    ------------------------------------------------
       NWT REQUIRED            3 OUTER ITERATIONS 
       AND A TOTAL OF          5 INNER ITERATIONS.
    ------------------------------------------------

 NO OUTPUT CONTROL FOR STRESS PERIOD    2   TIME STEP   18
 
 SOLVING FOR HEAD 
                                                   Max.-Head-Change                         Max.-Flux-Residual
  Residual-Control   Outer-Iter.   Inner-Iter.     Column Row Layer    Maximum-Head-Change  Column Row Layer    Maximum-Flux-Residual          L2-NORM 
          0                 1           2             2    2     1       0.2852655220E-02       2    2    1         0.1490502058E+00      0.3015797110E+00
          0                 2           2             2    2     1      -0.2774858982E-03       2    2    1        -0.1490504280E-01      0.3002118470E-01
          0                 3           1             2    2     1       0.1889575781E-04       2    2    1         0.1043353232E-02      0.2088771625E-02

    ------------------------------------------------
       NWT REQUIRED            3 OUTER ITERATIONS 
       AND A TOTAL OF          5 INNER ITERATIONS.
    ------------------------------------------------

 NO OUTPUT CONTROL FOR STRESS PERIOD    2   TIME STEP   19
 
 SOLVING FOR HEAD 
                                                   Max.-Head-Change                         Max.-Flux-Residual
  Residual-Control   Outer-Iter.   Inner-Iter.     Column Row Layer    Maximum-Head-Change  Column Row Layer    Maximum-Flux-Residual          L2-NORM 
          0                 1           2             2    2     1       0.2832744979E-02       2    2    1         0.1480030213E+00      0.2965743403E+00
          0                 2           2             2    2     1      -0.2755491682E-03       2    2    1        -0.1480032393E-01      0.2953617810E-01
          0                 3           1             2    2     1       0.1876387376E-04       2    2    1         0.1036022913E-02      0.2056254546E-02

    ------------------------------------------------
       NWT REQUIRED            3 OUTER ITERATIONS 
       AND A TOTAL OF          5 INNER ITERATIONS.
    ------------------------------------------------

 NO OUTPUT CONTROL FOR STRESS PERIOD    2   TIME STEP   20
 
 SOLVING FOR HEAD 
                                                   Max.-Head-Change                         Max.-Flux-Residual
  Residual-Control   Outer-Iter.   Inner-Iter.     Column Row Layer    Maximum-Head-Change  Column Row Layer    Maximum-Flux-Residual          L2-NORM 
          0                 1           2             2    2     1       0.2813117412E-02       2    2    1         0.1469706957E+00      0.2919606691E+00
          0                 2           2             2    2     1      -0.2736399349E-03       2    2    1        -0.1469709095E-01      0.2908721195E-01
          0                 3           1             2    2     1       0.1863386204E-04       2    2    1         0.1028796608E-02      0.2025392134E-02

    ------------------------------------------------
       NWT REQUIRED            3 OUTER ITERATIONS 
       AND A TOTAL OF          5 INNER ITERATIONS.
    ------------------------------------------------

 NO OUTPUT CONTROL FOR STRESS PERIOD    2   TIME STEP   21
 
 SOLVING FOR HEAD 
                                                   Max.-Head-Change                         Max.-Flux-Residual
  Residual-Control   Outer-Iter.   Inner-Iter.     Column Row Layer    Maximum-Head-Change  Column Row Layer    Maximum-Flux-Residual          L2-NORM 
          0                 1           2             2    2     1       0.2793767597E-02       2    2    1         0.1459530265E+00      0.2876717450E+00
          0                 2           2             2    2     1      -0.2717577197E-03       2    2    1        -0.1459532363E-01      0.2864800425E-01
          0                 3           1             2    2     1       0.1850569044E-04       2    2    1         0.1021672912E-02      0.1996967620E-02

    ------------------------------------------------
       NWT REQUIRED            3 OUTER ITERATIONS 
       AND A TOTAL OF          5 INNER ITERATIONS.
    ------------------------------------------------

 NO OUTPUT CONTROL FOR STRESS PERIOD    2   TIME STEP   22
 
 SOLVING FOR HEAD 
                                                   Max.-Head-Change                         Max.-Flux-Residual
  Residual-Control   Outer-Iter.   Inner-Iter.     Column Row Layer    Maximum-Head-Change  Column Row Layer    Maximum-Flux-Residual          L2-NORM 
          0                 1           2             2    2     1       0.2774691381E-02       2    2    1         0.1449497585E+00      0.2837507840E+00
          0                 2           2             2    2     1      -0.2699021179E-03       2    2    1        -0.1449499642E-01      0.2829013869E-01
          0                 3           1             2    2     1       0.1837933082E-04       2    2    1         0.1014650006E-02      0.1972719293E-02

    ------------------------------------------------
       NWT REQUIRED            3 OUTER ITERATIONS 
       AND A TOTAL OF          5 INNER ITERATIONS.
    ------------------------------------------------

 NO OUTPUT CONTROL FOR STRESS PERIOD    2   TIME STEP   23
 
 SOLVING FOR HEAD 
                                                   Max.-Head-Change                         Max.-Flux-Residual
  Residual-Control   Outer-Iter.   Inner-Iter.     Column Row Layer    Maximum-Head-Change  Column Row Layer    Maximum-Flux-Residual          L2-NORM 
          0                 1           2             2    2     1       0.2755889406E-02       2    2    1         0.1439609219E+00      0.2800863817E+00
          0                 2           2             2    2     1      -0.2680731924E-03       2    2    1        -0.1439611239E-01      0.2793275682E-01
          0                 3           1             2    2     1       0.1825478743E-04       2    2    1         0.1007728093E-02      0.1948629738E-02

    ------------------------------------------------
       NWT REQUIRED            3 OUTER ITERATIONS 
       AND A TOTAL OF          5 INNER ITERATIONS.
    ------------------------------------------------

 NO OUTPUT CONTROL FOR STRESS PERIOD    2   TIME STEP   24
 
 SOLVING FOR HEAD 
                                                   Max.-Head-Change                         Max.-Flux-Residual
  Residual-Control   Outer-Iter.   Inner-Iter.     Column Row Layer    Maximum-Head-Change  Column Row Layer    Maximum-Flux-Residual          L2-NORM 
          0                 1           2             2    2     1       0.2737260761E-02       2    2    1         0.1429812797E+00      0.2766706518E+00
          0                 2           2             2    2     1      -0.2662611273E-03       2    2    1        -0.1429814778E-01      0.2759995882E-01
          0                 3           1             2    2     1       0.1813139261E-04       2    2    1         0.1000870577E-02      0.1925853957E-02

    ------------------------------------------------
       NWT REQUIRED            3 OUTER ITERATIONS 
       AND A TOTAL OF          5 INNER ITERATIONS.
    ------------------------------------------------

 NO OUTPUT CONTROL FOR STRESS PERIOD    2   TIME STEP   25
 
 SOLVING FOR HEAD 
                                                   Max.-Head-Change                         Max.-Flux-Residual
  Residual-Control   Outer-Iter.   Inner-Iter.     Column Row Layer    Maximum-Head-Change  Column Row Layer    Maximum-Flux-Residual          L2-NORM 
          0                 1           2             2    2     1       0.2718980085E-02       2    2    1         0.1420199372E+00      0.2734814448E+00
          0                 2           2             2    2     1      -0.2644829109E-03       2    2    1        -0.1420201317E-01      0.2728806241E-01
          0                 3           1             2    2     1       0.1801030323E-04       2    2    1         0.9941411768E-03      0.1904250751E-02

    ------------------------------------------------
       NWT REQUIRED            3 OUTER ITERATIONS 
       AND A TOTAL OF          5 INNER ITERATIONS.
    ------------------------------------------------

 NO OUTPUT CONTROL FOR STRESS PERIOD    2   TIME STEP   26
 
 SOLVING FOR HEAD 
                                                   Max.-Head-Change                         Max.-Flux-Residual
  Residual-Control   Outer-Iter.   Inner-Iter.     Column Row Layer    Maximum-Head-Change  Column Row Layer    Maximum-Flux-Residual          L2-NORM 
          0                 1           2             2    2     1       0.2700869381E-02       2    2    1         0.1410675692E+00      0.2704895739E+00
          0                 2           2             2    2     1      -0.2627212273E-03       2    2    1        -0.1410677599E-01      0.2699573848E-01
          0                 3           1             2    2     1       0.1789033852E-04       2    2    1         0.9874745567E-03      0.1885295107E-02

    ------------------------------------------------
       NWT REQUIRED            3 OUTER ITERATIONS 
       AND A TOTAL OF          5 INNER ITERATIONS.
    ------------------------------------------------

 NO OUTPUT CONTROL FOR STRESS PERIOD    2   TIME STEP   27
 
 SOLVING FOR HEAD 
                                                   Max.-Head-Change                         Max.-Flux-Residual
  Residual-Control   Outer-Iter.   Inner-Iter.     Column Row Layer    Maximum-Head-Change  Column Row Layer    Maximum-Flux-Residual          L2-NORM 
          0                 1           2             2    2     1       0.2683012307E-02       2    2    1         0.1401285478E+00      0.2676806483E+00
          0                 2           2             2    2     1      -0.2609842159E-03       2    2    1        -0.1401287351E-01      0.2672002674E-01
          0                 3           1             2    2     1       0.1777205489E-04       2    2    1         0.9809013885E-03      0.1865495041E-02

    ------------------------------------------------
       NWT REQUIRED            3 OUTER ITERATIONS 
       AND A TOTAL OF          5 INNER ITERATIONS.
    ------------------------------------------------

 NO OUTPUT CONTROL FOR STRESS PERIOD    2   TIME STEP   28
 
 SOLVING FOR HEAD 
                                                   Max.-Head-Change                         Max.-Flux-Residual
  Residual-Control   Outer-Iter.   Inner-Iter.     Column Row Layer    Maximum-Head-Change  Column Row Layer    Maximum-Flux-Residual          L2-NORM 
          0                 1           2             2    2     1       0.2665404407E-02       2    2    1         0.1392026767E+00      0.2650364101E+00
          0                 2           2             2    2     1      -0.2592714421E-03       2    2    1        -0.1392028606E-01      0.2646096208E-01
          0                 3           1             2    2     1       0.1765542112E-04       2    2    1         0.9744202535E-03      0.1848266191E-02

    ------------------------------------------------
       NWT REQUIRED            3 OUTER ITERATIONS 
       AND A TOTAL OF          5 INNER ITERATIONS.
    ------------------------------------------------

 NO OUTPUT CONTROL FOR STRESS PERIOD    2   TIME STEP   29
 
 SOLVING FOR HEAD 
                                                   Max.-Head-Change                         Max.-Flux-Residual
  Residual-Control   Outer-Iter.   Inner-Iter.     Column Row Layer    Maximum-Head-Change  Column Row Layer    Maximum-Flux-Residual          L2-NORM 
          0                 1           2             2    2     1       0.2648042040E-02       2    2    1         0.1382897251E+00      0.2625375411E+00
          0                 2           2             2    2     1      -0.2575825525E-03       2    2    1        -0.1382899057E-01      0.2621546360E-01
          0                 3           1             2    2     1       0.1754041401E-04       2    2    1         0.9680295867E-03      0.1831743696E-02

    ------------------------------------------------
       NWT REQUIRED            3 OUTER ITERATIONS 
       AND A TOTAL OF          5 INNER ITERATIONS.
    ------------------------------------------------

 NO OUTPUT CONTROL FOR STRESS PERIOD    2   TIME STEP   30



 STREAM LISTING     PERIOD      2   STEP       30

 LAYER ROW COL. STREAM  RCH.  FLOW INTO     FLOW TO   FLOW OUT OF   OVRLND.     DIRECT     STREAM       STREAM     STREAM     STREAM   STREAMBED  STREAMBED
                SEG.NO.  NO.  STRM. RCH.    AQUIFER    STRM. RCH.    RUNOFF     PRECIP       ET          HEAD       DEPTH      WIDTH   CONDCTNC.   GRADIENT

   1    1    1     1     1    1.6500E+01  1.9759E-01   1.6302E+01  0.000E+00  0.000E+00  0.000E+00  1.09409E+03  1.039E+00  1.087E+01  4.893E-02  1.346E+00
   1    2    2     1     2    1.6302E+01  3.0466E-01   1.5998E+01  0.000E+00  0.000E+00  0.000E+00  1.08909E+03  1.034E+00  1.079E+01  7.552E-02  1.345E+00
   1    3    3     1     3    1.5998E+01  2.5853E-01   1.5739E+01  0.000E+00  0.000E+00  0.000E+00  1.08345E+03  1.029E+00  1.070E+01  6.417E-02  1.343E+00
   1    3    4     1     4    1.5739E+01  2.3700E-01   1.5502E+01  0.000E+00  0.000E+00  0.000E+00  1.07843E+03  1.024E+00  1.061E+01  5.889E-02  1.341E+00
   1    4    5     2     1    1.3502E+01  2.9865E-01   1.3204E+01  0.000E+00  0.000E+00  0.000E+00  1.07276E+03  8.289E-01  1.200E+01  7.800E-02  1.276E+00
   1    5    6     2     2    1.3204E+01  2.2914E-01   1.2974E+01  0.000E+00  0.000E+00  0.000E+00  1.06733E+03  8.190E-01  1.200E+01  6.000E-02  1.273E+00
   1    6    6     2     3    1.2974E+01  2.2862E-01   1.2746E+01  0.000E+00  0.000E+00  0.000E+00  1.06260E+03  8.104E-01  1.200E+01  6.000E-02  1.270E+00
   1    7    6     2     4    1.2746E+01  2.2810E-01   1.2518E+01  0.000E+00  0.000E+00  0.000E+00  1.05788E+03  8.017E-01  1.200E+01  6.000E-02  1.267E+00
   1    8    6     2     5    1.2518E+01  2.2758E-01   1.2290E+01  0.000E+00  0.000E+00  0.000E+00  1.05315E+03  7.930E-01  1.200E+01  6.000E-02  1.264E+00
   1    3    5     3     1    2.0000E+00  2.8252E-01   1.7175E+00  0.000E+00  0.000E+00  0.000E+00  1.07555E+03  1.909E+00  9.636E+00  7.227E-02  1.955E+00
   1    3    6     3     2    1.7175E+00  2.4905E-01   1.4684E+00  0.000E+00  0.000E+00  0.000E+00  1.07264E+03  1.727E+00  8.909E+00  6.682E-02  1.864E+00
   1    3    7     3     3    1.4684E+00  1.9718E-01   1.2712E+00  0.000E+00  0.000E+00  0.000E+00  1.06987E+03  1.555E+00  8.218E+00  5.547E-02  1.777E+00
   1    4    8     3     4    1.2712E+00  2.2567E-01   1.0456E+00  0.000E+00  0.000E+00  0.000E+00  1.06682E+03  1.364E+00  7.455E+00  6.709E-02  1.682E+00
   1    5    8     3     5    1.0456E+00  1.5790E-01   8.8768E-01  0.000E+00  0.000E+00  0.000E+00  1.06362E+03  1.164E+00  6.655E+00  4.991E-02  1.582E+00
   1    6    8     3     6    8.8768E-01  5.5980E-02   8.3170E-01  0.000E+00  0.000E+00  0.000E+00  1.06158E+03  1.036E+00  6.145E+00  1.844E-02  1.518E+00
   1    5   10     4     1    1.0000E+01  9.0919E-02   9.9091E+00  0.000E+00  0.000E+00  0.000E+00  1.07836E+03  6.368E-01  1.000E+01  2.500E-02  1.212E+00
   1    5    9     4     2    9.9091E+00  1.8158E-01   9.7275E+00  0.000E+00  0.000E+00  0.000E+00  1.07154E+03  6.315E-01  1.000E+01  5.000E-02  1.211E+00
   1    6    8     4     3    9.7275E+00  1.2689E-01   9.6006E+00  0.000E+00  0.000E+00  0.000E+00  1.06381E+03  6.256E-01  1.000E+01  3.500E-02  1.209E+00
   1    6    8     5     1    1.0432E+01  2.2686E-01   1.0205E+01  0.000E+00  0.000E+00  0.000E+00  1.05868E+03  6.790E-01  1.542E+01  6.166E-02  1.226E+00
   1    7    7     5     2    1.0205E+01  2.7894E-01   9.9265E+00  0.000E+00  0.000E+00  0.000E+00  1.05417E+03  6.732E-01  1.519E+01  7.594E-02  1.224E+00
   1    8    7     5     3    9.9265E+00  1.9221E-01   9.7343E+00  0.000E+00  0.000E+00  0.000E+00  1.04992E+03  6.676E-01  1.497E+01  5.241E-02  1.223E+00
   1    8    6     5     4    9.7343E+00  1.3577E-01   9.5985E+00  0.000E+00  0.000E+00  0.000E+00  1.04691E+03  6.637E-01  1.482E+01  3.706E-02  1.221E+00
   1    9    6     6     1    2.1889E+01  2.4742E-01   2.1641E+01  0.000E+00  0.000E+00  0.000E+00  1.04385E+03  1.124E+00  1.200E+01  6.000E-02  1.375E+00
   1   10    7     6     2    2.1641E+01  2.4696E-01   2.1394E+01  0.000E+00  0.000E+00  0.000E+00  1.03930E+03  1.116E+00  1.200E+01  6.000E-02  1.372E+00
   1   11    7     6     3    2.1394E+01  2.4650E-01   2.1148E+01  0.000E+00  0.000E+00  0.000E+00  1.03474E+03  1.108E+00  1.200E+01  6.000E-02  1.369E+00
   1   12    7     6     4    2.1148E+01  2.4603E-01   2.0902E+01  0.000E+00  0.000E+00  0.000E+00  1.03019E+03  1.101E+00  1.200E+01  6.000E-02  1.367E+00
   1   13    7     6     5    2.0902E+01 -1.7643E-02   2.0919E+01  0.000E+00  0.000E+00  0.000E+00  1.02701E+03  1.097E+00  1.200E+01  2.400E-01 -2.450E-02
   1   14    9     7     1    1.5000E+02  1.3345E+00   1.4867E+02  0.000E+00  0.000E+00  0.000E+00  1.03987E+03  2.288E+00  5.529E+01  5.593E-01  7.953E-01
   1   13    8     7     2    1.4867E+02  1.8340E+00   1.4683E+02  0.000E+00  0.000E+00  0.000E+00  1.03478E+03  2.279E+00  5.526E+01  6.148E-01  9.944E-01
   1   13    7     7     3    1.4683E+02  1.4577E+00   1.4537E+02  0.000E+00  0.000E+00  0.000E+00  1.02969E+03  2.271E+00  5.522E+01  5.585E-01  8.701E-01
   1   13    6     8     1    1.6629E+02  8.7801E-01   1.6542E+02  0.000E+00  0.000E+00  0.000E+00  1.02480E+03  2.925E+00  4.241E+01  4.322E-01  6.772E-01
   1   13    5     8     2    1.6542E+02  1.3043E-01   1.6528E+02  0.000E+00  0.000E+00  0.000E+00  1.01855E+03  2.922E+00  4.236E+01  4.317E-01  1.007E-01
   1   13    4     8     3    1.6528E+02 -2.6018E+00   1.6789E+02  0.000E+00  0.000E+00  0.000E+00  1.01230E+03  2.930E+00  4.248E+01  4.329E+00 -2.003E-01
   1   13    3     8     4    1.6789E+02 -3.7076E+00   1.7159E+02  0.000E+00  0.000E+00  0.000E+00  1.00608E+03  2.951E+00  4.278E+01  4.360E+00 -2.835E-01
   1   13    2     8     5    1.7159E+02 -2.5608E+00   1.7416E+02  0.000E+00  0.000E+00  0.000E+00  9.99846E+02  2.971E+00  4.308E+01  4.390E+00 -1.945E-01
   1   13    1     8     6    1.7416E+02 -1.9439E+00   1.7610E+02  0.000E+00  0.000E+00  0.000E+00  9.94860E+02  2.985E+00  4.329E+01  2.647E+00 -2.448E-01
   1    8    6     9     1    0.0000E+00  0.0000E+00   0.0000E+00  0.000E+00  0.000E+00  0.000E+00  1.07875E+03  0.000E+00  4.000E+00  0.000E+00  1.000E+00
   1    8    5     9     2    0.0000E+00  0.0000E+00   0.0000E+00  0.000E+00  0.000E+00  0.000E+00  1.07825E+03  0.000E+00  4.000E+00  0.000E+00  1.000E+00





UNSATURATED ZONE PACKAGE VOLUMETRIC BUDGET FOR  TIME STEP    30 STRESS PERIOD    2
  ------------------------------------------------------------------------------



     CUMULATIVE VOLUMES      L**3       RATES FOR THIS TIME STEP      L**3/T
     ------------------                 ------------------------

           IN:                                      IN:
           ---                                      ---
        INFILTRATION =    11664948.5581          INFILTRATION =           4.4075

          OUT:                                     OUT:
          ----                                     ----
              UZF ET =     1906749.7349                UZF ET =           0.7250
        UZF RECHARGE =       73224.0000          UZF RECHARGE =       0.0000E+00

            IN - OUT =     9684974.8232              IN - OUT =           3.6825

          STORAGE:                                 STORAGE:
          --------                                 --------
      STORAGE CHANGE =     9684974.7653        STORAGE CHANGE =           3.6825

 PERCENT DISCREPANCY IS DIFFERENCE BETWEEN IN-OUT MINUS CHANGE IN STORAGE
 DIVIDED BY THE AVERAGE OF IN AND OUT TIMES 100

 PERCENT DISCREPANCY =           0.00     PERCENT DISCREPANCY =           0.00






1
  VOLUMETRIC BUDGET FOR AGRICULTURAL FIELDS AT TIME STEP   30, STRESS PERIOD   2
  ------------------------------------------------------------------------------

     CUMULATIVE VOLUMES      L**3       RATES FOR THIS TIME STEP      L**3/T
     ------------------                 ------------------------

           IN:                                      IN:
           ---                                      ---
               AG WELLS  =           0.0000                 AG WELLS  =           0.0000
      DIVERSION SEGMENTS =           0.0000        DIVERSION SEGMENTS =           0.0000
           GW IRRIGATION =           0.0000             GW IRRIGATION =           0.0000
           SW IRRIGATION =           0.0000             SW IRRIGATION =           0.0000
        SYSTEM LOSSES GW =           0.0000          SYSTEM LOSSES GW =           0.0000
        SYSTEM LOSSES SW =           0.0000          SYSTEM LOSSES SW =           0.0000

                TOTAL IN =           0.0000                  TOTAL IN =           0.0000

          OUT:                                     OUT:
          ----                                     ----
               AG WELLS  =           0.0000                 AG WELLS  =           0.0000
      DIVERSION SEGMENTS =           0.0000        DIVERSION SEGMENTS =           0.0000
           GW IRRIGATION =           0.0000             GW IRRIGATION =           0.0000
           SW IRRIGATION =           0.0000             SW IRRIGATION =           0.0000
        SYSTEM LOSSES GW =           0.0000          SYSTEM LOSSES GW =           0.0000
        SYSTEM LOSSES SW =           0.0000          SYSTEM LOSSES SW =           0.0000

               TOTAL OUT =           0.0000                 TOTAL OUT =           0.0000

                IN - OUT =           0.0000                  IN - OUT =           0.0000

     PERCENT DISCREPANCY =           0.00         PERCENT DISCREPANCY =           0.00



1
  VOLUMETRIC BUDGET FOR ENTIRE MODEL AT END OF TIME STEP   30, STRESS PERIOD   2
  ------------------------------------------------------------------------------

     CUMULATIVE VOLUMES      L**3       RATES FOR THIS TIME STEP      L**3/T
     ------------------                 ------------------------

           IN:                                      IN:
           ---                                      ---
             STORAGE     =     1717157.7500               STORAGE     =           0.5919
       CONSTANT HEAD     =           0.0000         CONSTANT HEAD     =           0.0000
     HEAD DEP BOUNDS     =      775921.8750       HEAD DEP BOUNDS     =           0.2857
      STREAM LEAKAGE     =    30472192.0000        STREAM LEAKAGE     =          11.2329
        UZF RECHARGE     =       73223.9531          UZF RECHARGE     =           0.0000
               GW ET     =           0.0000                 GW ET     =           0.0000
     SURFACE LEAKAGE     =           0.0000       SURFACE LEAKAGE     =           0.0000
           AG WELLS      =           0.0000             AG WELLS      =           0.0000

                TOTAL IN =    33038496.0000                  TOTAL IN =          12.1105

          OUT:                                     OUT:
          ----                                     ----
             STORAGE     =     3367968.7500               STORAGE     =           0.9902
       CONSTANT HEAD     =           0.0000         CONSTANT HEAD     =           0.0000
     HEAD DEP BOUNDS     =      782284.1250       HEAD DEP BOUNDS     =           0.2886
      STREAM LEAKAGE     =    28888704.0000        STREAM LEAKAGE     =          10.8318
        UZF RECHARGE     =           0.0000          UZF RECHARGE     =           0.0000
               GW ET     =           0.0000                 GW ET     =           0.0000
     SURFACE LEAKAGE     =           0.0000       SURFACE LEAKAGE     =           0.0000
           AG WELLS      =           0.0000             AG WELLS      =           0.0000

               TOTAL OUT =    33038956.0000                 TOTAL OUT =          12.1106

                IN - OUT =        -460.0000                  IN - OUT =      -1.1063E-04

     PERCENT DISCREPANCY =          -0.00         PERCENT DISCREPANCY =          -0.00






         TIME SUMMARY AT END OF TIME STEP   30 IN STRESS PERIOD    2
                    SECONDS     MINUTES      HOURS       DAYS        YEARS
                    -----------------------------------------------------------
   TIME STEP LENGTH  87667.      1461.1      24.352      1.0147     2.77799E-03
 STRESS PERIOD TIME 2.63000E+06  43833.      730.56      30.440     8.33397E-02
         TOTAL TIME 2.71640E+06  45273.      754.56      31.440     8.60775E-02
1
1
                            STRESS PERIOD NO.    3, LENGTH =   2630000.    
                            -----------------------------------------------

                              NUMBER OF TIME STEPS =    30

                               MULTIPLIER FOR DELT =     1.000

                            INITIAL TIME STEP SIZE =   87666.66    

 REUSING NON-PARAMETER GHB CELLS FROM LAST STRESS PERIOD

      2 GHB CELLS

 REUSING STREAM SEGMENT DATA FROM LAST STRESS PERIOD



            AREAL INFILTRATION RATE
 READING ON UNIT   19 WITH FORMAT: (10F4.0)            

            1           2           3           4           5           6           7           8           9          10
 ........................................................................................................................
   1   1.2000E-09   0.000       0.000       0.000       0.000       0.000       0.000       0.000       0.000       0.000    
   2   2.1000E-09  2.0000E-09  8.0000E-10  8.5000E-09   0.000       0.000       0.000       0.000       0.000       0.000    
   3   5.0000E-10  1.1000E-09  8.8000E-09  5.5000E-09   0.000       0.000       0.000       0.000       0.000       0.000    
   4   8.5000E-09  1.1000E-09  1.1000E-09  1.1000E-09  2.0000E-09   0.000       0.000       0.000       0.000       0.000    
   5   8.5000E-09  1.1000E-09  1.1000E-09  1.1000E-09  1.1000E-09   0.000       0.000       0.000       0.000       0.000    
   6   8.5000E-09  5.2000E-09  2.1000E-09  1.1000E-09  1.5000E-09   0.000       0.000       0.000       0.000       0.000    
   7   8.5000E-09  5.2000E-09  2.1000E-09  1.2000E-09  2.0000E-09   0.000       0.000       0.000       0.000       0.000    
   8   5.0000E-10  5.2000E-09  2.1000E-09  1.2000E-09  5.0000E-09   0.000       0.000       0.000       0.000       0.000    
   9   5.0000E-10  5.2000E-09  2.1000E-09  1.2000E-09  5.0000E-09   0.000       0.000       0.000       0.000       0.000    
  10   5.0000E-10  5.2000E-09  2.1000E-09  1.2000E-09  5.8000E-09   0.000       0.000       0.000       0.000       0.000    
  11   1.0000E-10  1.1000E-09  1.1000E-09  1.2000E-09  5.0000E-09   0.000       0.000       0.000       0.000       0.000    
  12   1.1000E-09  1.1000E-09  1.1000E-09  1.1000E-09  2.0000E-09   0.000       0.000       0.000       0.000       0.000    
  13   1.1000E-09  2.2000E-09  2.2000E-09  2.1000E-09  1.0000E-09   0.000       0.000       0.000       0.000       0.000    
  14   2.0000E-10  5.5000E-09  5.5000E-09  5.2000E-09  1.0000E-09   0.000       0.000       0.000       0.000       0.000    
  15    0.000      8.8000E-09  8.8000E-09   0.000       0.000       0.000       0.000       0.000       0.000       0.000    

                  ET RATE =  5.000000E-10

 USING ET EXTINCTION DEPTH FROM PREVIOUS STRESS PERIOD. CURRENT PERIOD IS:       3

 USING EXTINCTION WATER CONTENT FROM PREVIOUS STRESS PERIOD. CURRENT PERIOD IS:       3

 USING AIR ENTRY PRESSURE FROM PREVIOUS STRESS PERIOD. CURRENT PERIOD IS:       3

 USING ROOT PRESSURE HEAD FROM PREVIOUS STRESS PERIOD. CURRENT PERIOD IS:       3

 USING ROOT ACTIVITY FROM PREVIOUS STRESS PERIOD. CURRENT PERIOD IS:       3

 PROCESSING AG STRESS PERIOD DATA

 READING AG STRESS PERIOD DATA

 READING IRRIGATION SEGMENT

 READING IRRIGATION WELL

 READING SUPPLEMENTAL WELL

 END PROCESSING AG STRESS PERIOD DATA OPTIONS
 
 SOLVING FOR HEAD 
                                                   Max.-Head-Change                         Max.-Flux-Residual
  Residual-Control   Outer-Iter.   Inner-Iter.     Column Row Layer    Maximum-Head-Change  Column Row Layer    Maximum-Flux-Residual          L2-NORM 
          0                 1           2             2    2     1       0.3921640727E-02       2    2    1         0.2048605367E+00      0.4998719366E+00
          0                 2           2             7   13     1      -0.6931948785E-03       7   13    1        -0.3837497749E-01      0.6128776747E-01
          0                 3           1             7   13     1       0.4719176522E-04       7   13    1         0.2685570582E-02      0.4239795562E-02

    ------------------------------------------------
       NWT REQUIRED            3 OUTER ITERATIONS 
       AND A TOTAL OF          5 INNER ITERATIONS.
    ------------------------------------------------

 NO OUTPUT CONTROL FOR STRESS PERIOD    3   TIME STEP    1
 
 SOLVING FOR HEAD 
                                                   Max.-Head-Change                         Max.-Flux-Residual
  Residual-Control   Outer-Iter.   Inner-Iter.     Column Row Layer    Maximum-Head-Change  Column Row Layer    Maximum-Flux-Residual          L2-NORM 
          0                 1           2             2   13     1       0.5737848324E-02       4   13    1         0.3262450960E+00      0.7450786839E+00
          0                 2           2             4   13     1      -0.5480878175E-03       4   13    1        -0.3228390834E-01      0.7315651980E-01
          0                 3           1             4   13     1       0.3677863260E-04       4   13    1         0.2227302336E-02      0.4995162275E-02

    ------------------------------------------------
       NWT REQUIRED            3 OUTER ITERATIONS 
       AND A TOTAL OF          5 INNER ITERATIONS.
    ------------------------------------------------

 NO OUTPUT CONTROL FOR STRESS PERIOD    3   TIME STEP    2
 
 SOLVING FOR HEAD 
                                                   Max.-Head-Change                         Max.-Flux-Residual
  Residual-Control   Outer-Iter.   Inner-Iter.     Column Row Layer    Maximum-Head-Change  Column Row Layer    Maximum-Flux-Residual          L2-NORM 
          0                 1           2             2   13     1       0.5310463294E-02       2   13    1         0.2989811985E+00      0.7084675238E+00
          0                 2           2             4   13     1      -0.4975366923E-03       4   13    1        -0.2928598003E-01      0.6963272701E-01
          0                 3           1             4   13     1       0.3336997042E-04       4   13    1         0.2019443943E-02      0.4761546779E-02

    ------------------------------------------------
       NWT REQUIRED            3 OUTER ITERATIONS 
       AND A TOTAL OF          5 INNER ITERATIONS.
    ------------------------------------------------

 NO OUTPUT CONTROL FOR STRESS PERIOD    3   TIME STEP    3
 
 SOLVING FOR HEAD 
                                                   Max.-Head-Change                         Max.-Flux-Residual
  Residual-Control   Outer-Iter.   Inner-Iter.     Column Row Layer    Maximum-Head-Change  Column Row Layer    Maximum-Flux-Residual          L2-NORM 
          0                 1           2             2   13     1       0.4915335462E-02       2   13    1         0.2767006368E+00      0.6757128720E+00
          0                 2           2             2    2     1      -0.4665859467E-03       4   13    1        -0.2658701655E-01      0.6648371856E-01
          0                 3           1             2    2     1       0.3177276404E-04       4   13    1         0.1833410050E-02      0.4552599550E-02

    ------------------------------------------------
       NWT REQUIRED            3 OUTER ITERATIONS 
       AND A TOTAL OF          5 INNER ITERATIONS.
    ------------------------------------------------

 NO OUTPUT CONTROL FOR STRESS PERIOD    3   TIME STEP    4
 
 SOLVING FOR HEAD 
                                                   Max.-Head-Change                         Max.-Flux-Residual
  Residual-Control   Outer-Iter.   Inner-Iter.     Column Row Layer    Maximum-Head-Change  Column Row Layer    Maximum-Flux-Residual          L2-NORM 
          0                 1           2             2    2     1       0.4764247491E-02       2   13    1         0.2561076174E+00      0.6464225526E+00
          0                 2           2             2    2     1      -0.4634322824E-03       2    2    1        -0.2488671475E-01      0.6366872501E-01
          0                 3           1             2    2     1       0.3155801145E-04       2    2    1         0.1742070209E-02      0.4365937162E-02

    ------------------------------------------------
       NWT REQUIRED            3 OUTER ITERATIONS 
       AND A TOTAL OF          5 INNER ITERATIONS.
    ------------------------------------------------

 NO OUTPUT CONTROL FOR STRESS PERIOD    3   TIME STEP    5
 
 SOLVING FOR HEAD 
                                                   Max.-Head-Change                         Max.-Flux-Residual
  Residual-Control   Outer-Iter.   Inner-Iter.     Column Row Layer    Maximum-Head-Change  Column Row Layer    Maximum-Flux-Residual          L2-NORM 
          0                 1           2             2    2     1       0.4732200352E-02       2    2    1         0.2471810290E+00      0.6202312920E+00
          0                 2           2             2    2     1      -0.4603149523E-03       2    2    1        -0.2471816257E-01      0.6115467715E-01
          0                 3           1             2    2     1       0.3134573327E-04       2    2    1         0.1730271577E-02      0.4199957212E-02

    ------------------------------------------------
       NWT REQUIRED            3 OUTER ITERATIONS 
       AND A TOTAL OF          5 INNER ITERATIONS.
    ------------------------------------------------

 NO OUTPUT CONTROL FOR STRESS PERIOD    3   TIME STEP    6
 
 SOLVING FOR HEAD 
                                                   Max.-Head-Change                         Max.-Flux-Residual
  Residual-Control   Outer-Iter.   Inner-Iter.     Column Row Layer    Maximum-Head-Change  Column Row Layer    Maximum-Flux-Residual          L2-NORM 
          0                 1           2             2    2     1       0.4700606368E-02       2    2    1         0.2455194204E+00      0.5968142160E+00
          0                 2           2             2    2     1      -0.4572417024E-03       2    2    1        -0.2455200061E-01      0.5890799368E-01
          0                 3           1             2    2     1       0.3113645612E-04       2    2    1         0.1718640229E-02      0.4051671167E-02

    ------------------------------------------------
       NWT REQUIRED            3 OUTER ITERATIONS 
       AND A TOTAL OF          5 INNER ITERATIONS.
    ------------------------------------------------

 NO OUTPUT CONTROL FOR STRESS PERIOD    3   TIME STEP    7
 
 SOLVING FOR HEAD 
                                                   Max.-Head-Change                         Max.-Flux-Residual
  Residual-Control   Outer-Iter.   Inner-Iter.     Column Row Layer    Maximum-Head-Change  Column Row Layer    Maximum-Flux-Residual          L2-NORM 
          0                 1           2             2    2     1       0.4669458605E-02       2    2    1         0.2438813074E+00      0.5758725219E+00
          0                 2           2             2    2     1      -0.4542118580E-03       2    2    1        -0.2438818822E-01      0.5689915039E-01
          0                 3           1             2    2     1       0.3093013525E-04       2    2    1         0.1707173378E-02      0.3920168642E-02

    ------------------------------------------------
       NWT REQUIRED            3 OUTER ITERATIONS 
       AND A TOTAL OF          5 INNER ITERATIONS.
    ------------------------------------------------

 NO OUTPUT CONTROL FOR STRESS PERIOD    3   TIME STEP    8
 
 SOLVING FOR HEAD 
                                                   Max.-Head-Change                         Max.-Flux-Residual
  Residual-Control   Outer-Iter.   Inner-Iter.     Column Row Layer    Maximum-Head-Change  Column Row Layer    Maximum-Flux-Residual          L2-NORM 
          0                 1           2             2    2     1       0.4638749856E-02       2    2    1         0.2422663304E+00      0.5571329727E+00
          0                 2           2             2    2     1      -0.4512247179E-03       2    2    1        -0.2422668944E-01      0.5510234032E-01
          0                 3           1             2    2     1       0.3072672238E-04       2    2    1         0.1695868471E-02      0.3800779545E-02

    ------------------------------------------------
       NWT REQUIRED            3 OUTER ITERATIONS 
       AND A TOTAL OF          5 INNER ITERATIONS.
    ------------------------------------------------

 NO OUTPUT CONTROL FOR STRESS PERIOD    3   TIME STEP    9
 
 SOLVING FOR HEAD 
                                                   Max.-Head-Change                         Max.-Flux-Residual
  Residual-Control   Outer-Iter.   Inner-Iter.     Column Row Layer    Maximum-Head-Change  Column Row Layer    Maximum-Flux-Residual          L2-NORM 
          0                 1           2             2    2     1       0.4608473399E-02       2    2    1         0.2406741158E+00      0.5403538691E+00
          0                 2           2             2    2     1      -0.4482796287E-03       2    2    1        -0.2406746696E-01      0.5349350062E-01
          0                 3           1             2    2     1       0.3052617279E-04       2    2    1         0.1684722895E-02      0.3694716576E-02

    ------------------------------------------------
       NWT REQUIRED            3 OUTER ITERATIONS 
       AND A TOTAL OF          5 INNER ITERATIONS.
    ------------------------------------------------

 NO OUTPUT CONTROL FOR STRESS PERIOD    3   TIME STEP   10
 
 SOLVING FOR HEAD 
                                                   Max.-Head-Change                         Max.-Flux-Residual
  Residual-Control   Outer-Iter.   Inner-Iter.     Column Row Layer    Maximum-Head-Change  Column Row Layer    Maximum-Flux-Residual          L2-NORM 
          0                 1           2             2    2     1       0.4578535511E-02       2    2    1         0.2390997796E+00      0.5253116936E+00
          0                 2           2             2    2     1      -0.4453674732E-03       2    2    1        -0.2391003232E-01      0.5205008379E-01
          0                 3           1             2    2     1       0.3032786614E-04       2    2    1         0.1673702482E-02      0.3600745662E-02

    ------------------------------------------------
       NWT REQUIRED            3 OUTER ITERATIONS 
       AND A TOTAL OF          5 INNER ITERATIONS.
    ------------------------------------------------

 NO OUTPUT CONTROL FOR STRESS PERIOD    3   TIME STEP   11
 
 SOLVING FOR HEAD 
                                                   Max.-Head-Change                         Max.-Flux-Residual
  Residual-Control   Outer-Iter.   Inner-Iter.     Column Row Layer    Maximum-Head-Change  Column Row Layer    Maximum-Flux-Residual          L2-NORM 
          0                 1           2             2    2     1       0.4549016790E-02       2    2    1         0.2375475332E+00      0.5118069374E+00
          0                 2           2             2    2     1      -0.4424960918E-03       2    2    1        -0.2375480670E-01      0.5075393659E-01
          0                 3           1             2    2     1       0.3013233568E-04       2    2    1         0.1662836691E-02      0.3513181357E-02

    ------------------------------------------------
       NWT REQUIRED            3 OUTER ITERATIONS 
       AND A TOTAL OF          5 INNER ITERATIONS.
    ------------------------------------------------

 NO OUTPUT CONTROL FOR STRESS PERIOD    3   TIME STEP   12
 
 SOLVING FOR HEAD 
                                                   Max.-Head-Change                         Max.-Flux-Residual
  Residual-Control   Outer-Iter.   Inner-Iter.     Column Row Layer    Maximum-Head-Change  Column Row Layer    Maximum-Flux-Residual          L2-NORM 
          0                 1           2             2    2     1       0.4519910909E-02       2    2    1         0.2360170202E+00      0.4996684567E+00
          0                 2           2             2    2     1      -0.4396648691E-03       2    2    1        -0.2360175446E-01      0.4959089536E-01
          0                 3           1             2    2     1       0.2993953974E-04       2    2    1         0.1652123025E-02      0.3436755389E-02

    ------------------------------------------------
       NWT REQUIRED            3 OUTER ITERATIONS 
       AND A TOTAL OF          5 INNER ITERATIONS.
    ------------------------------------------------

 NO OUTPUT CONTROL FOR STRESS PERIOD    3   TIME STEP   13
 
 SOLVING FOR HEAD 
                                                   Max.-Head-Change                         Max.-Flux-Residual
  Residual-Control   Outer-Iter.   Inner-Iter.     Column Row Layer    Maximum-Head-Change  Column Row Layer    Maximum-Flux-Residual          L2-NORM 
          0                 1           2             2    2     1       0.4491211212E-02       2    2    1         0.2345079124E+00      0.4887377962E+00
          0                 2           2             2    2     1      -0.4368731566E-03       2    2    1        -0.2345084272E-01      0.4853933631E-01
          0                 3           1             2    2     1       0.2974943478E-04       2    2    1         0.1641559221E-02      0.3367082809E-02

    ------------------------------------------------
       NWT REQUIRED            3 OUTER ITERATIONS 
       AND A TOTAL OF          5 INNER ITERATIONS.
    ------------------------------------------------

 NO OUTPUT CONTROL FOR STRESS PERIOD    3   TIME STEP   14
 
 SOLVING FOR HEAD 
                                                   Max.-Head-Change                         Max.-Flux-Residual
  Residual-Control   Outer-Iter.   Inner-Iter.     Column Row Layer    Maximum-Head-Change  Column Row Layer    Maximum-Flux-Residual          L2-NORM 
          0                 1           2             2    2     1       0.4462824820E-02       2    2    1         0.2330153288E+00      0.4788720613E+00
          0                 2           2             2    2     1      -0.4341119208E-03       2    2    1        -0.2330158345E-01      0.4759143368E-01
          0                 3           1             2    2     1       0.2956140520E-04       2    2    1         0.1631111074E-02      0.3304041970E-02

    ------------------------------------------------
       NWT REQUIRED            3 OUTER ITERATIONS 
       AND A TOTAL OF          5 INNER ITERATIONS.
    ------------------------------------------------

 NO OUTPUT CONTROL FOR STRESS PERIOD    3   TIME STEP   15
 
 SOLVING FOR HEAD 
                                                   Max.-Head-Change                         Max.-Flux-Residual
  Residual-Control   Outer-Iter.   Inner-Iter.     Column Row Layer    Maximum-Head-Change  Column Row Layer    Maximum-Flux-Residual          L2-NORM 
          0                 1           2             2    2     1       0.4434832751E-02       2    2    1         0.2315435257E+00      0.4699384686E+00
          0                 2           2             2    2     1      -0.4313890423E-03       2    2    1        -0.2315440224E-01      0.4673193446E-01
          0                 3           1             2    2     1       0.2937598731E-04       2    2    1         0.1620808387E-02      0.3247045045E-02

    ------------------------------------------------
       NWT REQUIRED            3 OUTER ITERATIONS 
       AND A TOTAL OF          5 INNER ITERATIONS.
    ------------------------------------------------

 NO OUTPUT CONTROL FOR STRESS PERIOD    3   TIME STEP   16
 
 SOLVING FOR HEAD 
                                                   Max.-Head-Change                         Max.-Flux-Residual
  Residual-Control   Outer-Iter.   Inner-Iter.     Column Row Layer    Maximum-Head-Change  Column Row Layer    Maximum-Flux-Residual          L2-NORM 
          0                 1           2             2    2     1       0.4407229088E-02       2    2    1         0.2300921678E+00      0.4618380669E+00
          0                 2           2             2    2     1      -0.4287039453E-03       2    2    1        -0.2300926558E-01      0.4595220682E-01
          0                 3           1             2    2     1       0.2919314206E-04       2    2    1         0.1610648823E-02      0.3194967980E-02

    ------------------------------------------------
       NWT REQUIRED            3 OUTER ITERATIONS 
       AND A TOTAL OF          5 INNER ITERATIONS.
    ------------------------------------------------

 NO OUTPUT CONTROL FOR STRESS PERIOD    3   TIME STEP   17
 
 SOLVING FOR HEAD 
                                                   Max.-Head-Change                         Max.-Flux-Residual
  Residual-Control   Outer-Iter.   Inner-Iter.     Column Row Layer    Maximum-Head-Change  Column Row Layer    Maximum-Flux-Residual          L2-NORM 
          0                 1           2             2    2     1       0.4379997062E-02       2    2    1         0.2286604169E+00      0.4544617525E+00
          0                 2           2             2    2     1      -0.4260549990E-03       2    2    1        -0.2286608963E-01      0.4524107121E-01
          0                 3           1             2    2     1       0.2901275916E-04       2    2    1         0.1600626526E-02      0.3147893789E-02

    ------------------------------------------------
       NWT REQUIRED            3 OUTER ITERATIONS 
       AND A TOTAL OF          5 INNER ITERATIONS.
    ------------------------------------------------

 NO OUTPUT CONTROL FOR STRESS PERIOD    3   TIME STEP   18
 
 SOLVING FOR HEAD 
                                                   Max.-Head-Change                         Max.-Flux-Residual
  Residual-Control   Outer-Iter.   Inner-Iter.     Column Row Layer    Maximum-Head-Change  Column Row Layer    Maximum-Flux-Residual          L2-NORM 
          0                 1           2             2    2     1       0.4353151369E-02       2    2    1         0.2272489978E+00      0.4477424130E+00
          0                 2           2             2    2     1      -0.4234436319E-03       2    2    1        -0.2272494686E-01      0.4459267484E-01
          0                 3           1             2    2     1       0.2883493470E-04       2    2    1         0.1590746523E-02      0.3105138536E-02

    ------------------------------------------------
       NWT REQUIRED            3 OUTER ITERATIONS 
       AND A TOTAL OF          5 INNER ITERATIONS.
    ------------------------------------------------

 NO OUTPUT CONTROL FOR STRESS PERIOD    3   TIME STEP   19
 
 SOLVING FOR HEAD 
                                                   Max.-Head-Change                         Max.-Flux-Residual
  Residual-Control   Outer-Iter.   Inner-Iter.     Column Row Layer    Maximum-Head-Change  Column Row Layer    Maximum-Flux-Residual          L2-NORM 
          0                 1           2             2    2     1       0.4326589338E-02       2    2    1         0.2258525414E+00      0.4415879275E+00
          0                 2           2             2    2     1      -0.4208598585E-03       2    2    1        -0.2258530042E-01      0.4399820735E-01
          0                 3           1             2    2     1       0.2865898918E-04       2    2    1         0.1580971273E-02      0.3065258862E-02

    ------------------------------------------------
       NWT REQUIRED            3 OUTER ITERATIONS 
       AND A TOTAL OF          5 INNER ITERATIONS.
    ------------------------------------------------

 NO OUTPUT CONTROL FOR STRESS PERIOD    3   TIME STEP   20
 
 SOLVING FOR HEAD 
                                                   Max.-Head-Change                         Max.-Flux-Residual
  Residual-Control   Outer-Iter.   Inner-Iter.     Column Row Layer    Maximum-Head-Change  Column Row Layer    Maximum-Flux-Residual          L2-NORM 
          0                 1           2             2    2     1       0.4300478965E-02       2    2    1         0.2244798663E+00      0.4359393856E+00
          0                 2           2             2    2     1      -0.4183200194E-03       2    2    1        -0.2244803214E-01      0.4345138173E-01
          0                 3           1             2    2     1       0.2848603546E-04       2    2    1         0.1571362492E-02      0.3028301030E-02

    ------------------------------------------------
       NWT REQUIRED            3 OUTER ITERATIONS 
       AND A TOTAL OF          5 INNER ITERATIONS.
    ------------------------------------------------

 NO OUTPUT CONTROL FOR STRESS PERIOD    3   TIME STEP   21
 
 SOLVING FOR HEAD 
                                                   Max.-Head-Change                         Max.-Flux-Residual
  Residual-Control   Outer-Iter.   Inner-Iter.     Column Row Layer    Maximum-Head-Change  Column Row Layer    Maximum-Flux-Residual          L2-NORM 
          0                 1           2             2    2     1       0.4274640541E-02       2    2    1         0.2231215352E+00      0.4307383254E+00
          0                 2           2             2    2     1      -0.4158066334E-03       2    2    1        -0.2231219824E-01      0.4294771498E-01
          0                 3           1             2    2     1       0.2831488352E-04       2    2    1         0.1561854118E-02      0.2994621151E-02

    ------------------------------------------------
       NWT REQUIRED            3 OUTER ITERATIONS 
       AND A TOTAL OF          5 INNER ITERATIONS.
    ------------------------------------------------

 NO OUTPUT CONTROL FOR STRESS PERIOD    3   TIME STEP   22
 
 SOLVING FOR HEAD 
                                                   Max.-Head-Change                         Max.-Flux-Residual
  Residual-Control   Outer-Iter.   Inner-Iter.     Column Row Layer    Maximum-Head-Change  Column Row Layer    Maximum-Flux-Residual          L2-NORM 
          0                 1           2             2    2     1       0.4249069433E-02       2    2    1         0.2217773042E+00      0.4259341993E+00
          0                 2           2             2    2     1      -0.4133192505E-03       2    2    1        -0.2217777439E-01      0.4248109880E-01
          0                 3           1             2    2     1       0.2814550214E-04       2    2    1         0.1552444457E-02      0.2963466062E-02

    ------------------------------------------------
       NWT REQUIRED            3 OUTER ITERATIONS 
       AND A TOTAL OF          5 INNER ITERATIONS.
    ------------------------------------------------

 NO OUTPUT CONTROL FOR STRESS PERIOD    3   TIME STEP   23
 
 SOLVING FOR HEAD 
                                                   Max.-Head-Change                         Max.-Flux-Residual
  Residual-Control   Outer-Iter.   Inner-Iter.     Column Row Layer    Maximum-Head-Change  Column Row Layer    Maximum-Flux-Residual          L2-NORM 
          0                 1           2             2    2     1       0.4223934285E-02       2    2    1         0.2204560075E+00      0.4214811018E+00
          0                 2           2             2    2     1      -0.4108742747E-03       2    2    1        -0.2204564396E-01      0.4204810077E-01
          0                 3           1             2    2     1       0.2797900841E-04       2    2    1         0.1543195329E-02      0.2934244818E-02

    ------------------------------------------------
       NWT REQUIRED            3 OUTER ITERATIONS 
       AND A TOTAL OF          5 INNER ITERATIONS.
    ------------------------------------------------

 NO OUTPUT CONTROL FOR STRESS PERIOD    3   TIME STEP   24
 
 SOLVING FOR HEAD 
                                                   Max.-Head-Change                         Max.-Flux-Residual
  Residual-Control   Outer-Iter.   Inner-Iter.     Column Row Layer    Maximum-Head-Change  Column Row Layer    Maximum-Flux-Residual          L2-NORM 
          0                 1           2             2    2     1       0.4199142071E-02       2    2    1         0.2191527778E+00      0.4173408621E+00
          0                 2           2             2    2     1      -0.4084626574E-03       2    2    1        -0.2191532027E-01      0.4164516098E-01
          0                 3           1             2    2     1       0.2781478627E-04       2    2    1         0.1534072676E-02      0.2906891072E-02

    ------------------------------------------------
       NWT REQUIRED            3 OUTER ITERATIONS 
       AND A TOTAL OF          5 INNER ITERATIONS.
    ------------------------------------------------

 NO OUTPUT CONTROL FOR STRESS PERIOD    3   TIME STEP   25
 
 SOLVING FOR HEAD 
                                                   Max.-Head-Change                         Max.-Flux-Residual
  Residual-Control   Outer-Iter.   Inner-Iter.     Column Row Layer    Maximum-Head-Change  Column Row Layer    Maximum-Flux-Residual          L2-NORM 
          0                 1           2             2    2     1       0.4174600530E-02       2    2    1         0.2178627913E+00      0.4134797904E+00
          0                 2           2             2    2     1      -0.4060754240E-03       2    2    1        -0.2178632090E-01      0.4126956013E-01
          0                 3           1             2    2     1       0.2765222511E-04       2    2    1         0.1525042735E-02      0.2881935758E-02

    ------------------------------------------------
       NWT REQUIRED            3 OUTER ITERATIONS 
       AND A TOTAL OF          5 INNER ITERATIONS.
    ------------------------------------------------

 NO OUTPUT CONTROL FOR STRESS PERIOD    3   TIME STEP   26
 
 SOLVING FOR HEAD 
                                                   Max.-Head-Change                         Max.-Flux-Residual
  Residual-Control   Outer-Iter.   Inner-Iter.     Column Row Layer    Maximum-Head-Change  Column Row Layer    Maximum-Flux-Residual          L2-NORM 
          0                 1           2             2    2     1       0.4150391834E-02       2    2    1         0.2165903393E+00      0.4098650537E+00
          0                 2           2             2    2     1      -0.4037205679E-03       2    2    1        -0.2165907503E-01      0.4092682611E-01
          0                 3           1             2    2     1       0.2749186784E-04       2    2    1         0.1516135520E-02      0.2858546844E-02

    ------------------------------------------------
       NWT REQUIRED            3 OUTER ITERATIONS 
       AND A TOTAL OF          5 INNER ITERATIONS.
    ------------------------------------------------

 NO OUTPUT CONTROL FOR STRESS PERIOD    3   TIME STEP   27
 
 SOLVING FOR HEAD 
                                                   Max.-Head-Change                         Max.-Flux-Residual
  Residual-Control   Outer-Iter.   Inner-Iter.     Column Row Layer    Maximum-Head-Change  Column Row Layer    Maximum-Flux-Residual          L2-NORM 
          0                 1           2             2    2     1       0.4126511094E-02       2    2    1         0.2153351449E+00      0.4064678185E+00
          0                 2           2             2    2     1      -0.4013976122E-03       2    2    1        -0.2153355489E-01      0.4058387104E-01
          0                 3           1             2    2     1       0.2733368347E-04       2    2    1         0.1507349112E-02      0.2835223243E-02

    ------------------------------------------------
       NWT REQUIRED            3 OUTER ITERATIONS 
       AND A TOTAL OF          5 INNER ITERATIONS.
    ------------------------------------------------

 NO OUTPUT CONTROL FOR STRESS PERIOD    3   TIME STEP   28
 
 SOLVING FOR HEAD 
                                                   Max.-Head-Change                         Max.-Flux-Residual
  Residual-Control   Outer-Iter.   Inner-Iter.     Column Row Layer    Maximum-Head-Change  Column Row Layer    Maximum-Flux-Residual          L2-NORM 
          0                 1           2             2    2     1       0.4102953139E-02       2    2    1         0.2140969548E+00      0.4032579467E+00
          0                 2           2             2    2     1      -0.3991060559E-03       2    2    1        -0.2140973524E-01      0.4026944594E-01
          0                 3           1             2    2     1       0.2717763674E-04       2    2    1         0.1498681733E-02      0.2814509076E-02

    ------------------------------------------------
       NWT REQUIRED            3 OUTER ITERATIONS 
       AND A TOTAL OF          5 INNER ITERATIONS.
    ------------------------------------------------

 NO OUTPUT CONTROL FOR STRESS PERIOD    3   TIME STEP   29
 
 SOLVING FOR HEAD 
                                                   Max.-Head-Change                         Max.-Flux-Residual
  Residual-Control   Outer-Iter.   Inner-Iter.     Column Row Layer    Maximum-Head-Change  Column Row Layer    Maximum-Flux-Residual          L2-NORM 
          0                 1           2             4   13     1       0.9279378985E-02       4   13    1         0.5331634570E+00      0.1129361325E+01
          0                 2           2             4   13     1      -0.8928503052E-03       4   13    1        -0.5274537437E-01      0.1105072739E+00
          0                 3           1             4   13     1       0.5989610090E-04       4   13    1         0.3637934295E-02      0.7507072825E-02

    ------------------------------------------------
       NWT REQUIRED            3 OUTER ITERATIONS 
       AND A TOTAL OF          5 INNER ITERATIONS.
    ------------------------------------------------

 NO OUTPUT CONTROL FOR STRESS PERIOD    3   TIME STEP   30



 STREAM LISTING     PERIOD      3   STEP       30

 LAYER ROW COL. STREAM  RCH.  FLOW INTO     FLOW TO   FLOW OUT OF   OVRLND.     DIRECT     STREAM       STREAM     STREAM     STREAM   STREAMBED  STREAMBED
                SEG.NO.  NO.  STRM. RCH.    AQUIFER    STRM. RCH.    RUNOFF     PRECIP       ET          HEAD       DEPTH      WIDTH   CONDCTNC.   GRADIENT

   1    1    1     1     1    5.4376E+01  3.5202E-01   5.4024E+01  0.000E+00  0.000E+00  0.000E+00  1.09450E+03  1.455E+00  1.756E+01  7.901E-02  1.485E+00
   1    2    2     1     2    5.4024E+01  5.4505E-01   5.3479E+01  0.000E+00  0.000E+00  0.000E+00  1.08951E+03  1.449E+00  1.750E+01  1.225E-01  1.483E+00
   1    3    3     1     3    5.3479E+01  4.6474E-01   5.3014E+01  0.000E+00  0.000E+00  0.000E+00  1.08386E+03  1.443E+00  1.743E+01  1.046E-01  1.481E+00
   1    3    4     1     4    5.3014E+01  4.2788E-01   5.2587E+01  0.000E+00  0.000E+00  0.000E+00  1.07884E+03  1.437E+00  1.738E+01  9.643E-02  1.479E+00
   1    4    5     2     1    5.0587E+01  3.7745E-01   5.0209E+01  0.000E+00  0.000E+00  0.000E+00  1.07377E+03  1.839E+00  1.200E+01  7.800E-02  1.613E+00
   1    5    6     2     2    5.0209E+01  2.8990E-01   4.9919E+01  0.000E+00  0.000E+00  0.000E+00  1.06834E+03  1.832E+00  1.200E+01  6.000E-02  1.611E+00
   1    6    6     2     3    4.9919E+01  2.8952E-01   4.9630E+01  0.000E+00  0.000E+00  0.000E+00  1.06362E+03  1.825E+00  1.200E+01  6.000E-02  1.608E+00
   1    7    6     2     4    4.9630E+01  2.8914E-01   4.9341E+01  0.000E+00  0.000E+00  0.000E+00  1.05889E+03  1.819E+00  1.200E+01  6.000E-02  1.606E+00
   1    8    6     2     5    4.9341E+01  2.8876E-01   4.9052E+01  0.000E+00  0.000E+00  0.000E+00  1.05417E+03  1.813E+00  1.200E+01  6.000E-02  1.604E+00
   1    3    5     3     1    2.0000E+00  2.8252E-01   1.7175E+00  0.000E+00  0.000E+00  0.000E+00  1.07555E+03  1.909E+00  9.636E+00  7.227E-02  1.955E+00
   1    3    6     3     2    1.7175E+00  2.4905E-01   1.4684E+00  0.000E+00  0.000E+00  0.000E+00  1.07264E+03  1.727E+00  8.909E+00  6.682E-02  1.864E+00
   1    3    7     3     3    1.4684E+00  1.9718E-01   1.2712E+00  0.000E+00  0.000E+00  0.000E+00  1.06987E+03  1.555E+00  8.218E+00  5.547E-02  1.777E+00
   1    4    8     3     4    1.2712E+00  2.2567E-01   1.0456E+00  0.000E+00  0.000E+00  0.000E+00  1.06682E+03  1.364E+00  7.455E+00  6.709E-02  1.682E+00
   1    5    8     3     5    1.0456E+00  1.5790E-01   8.8768E-01  0.000E+00  0.000E+00  0.000E+00  1.06362E+03  1.164E+00  6.655E+00  4.991E-02  1.582E+00
   1    6    8     3     6    8.8768E-01  5.5980E-02   8.3170E-01  0.000E+00  0.000E+00  0.000E+00  1.06158E+03  1.036E+00  6.145E+00  1.844E-02  1.518E+00
   1    5   10     4     1    1.0000E+01  9.0919E-02   9.9091E+00  0.000E+00  0.000E+00  0.000E+00  1.07836E+03  6.368E-01  1.000E+01  2.500E-02  1.212E+00
   1    5    9     4     2    9.9091E+00  1.8158E-01   9.7275E+00  0.000E+00  0.000E+00  0.000E+00  1.07154E+03  6.315E-01  1.000E+01  5.000E-02  1.211E+00
   1    6    8     4     3    9.7275E+00  1.2689E-01   9.6006E+00  0.000E+00  0.000E+00  0.000E+00  1.06381E+03  6.256E-01  1.000E+01  3.500E-02  1.209E+00
   1    6    8     5     1    1.0432E+01  2.2686E-01   1.0205E+01  0.000E+00  0.000E+00  0.000E+00  1.05868E+03  6.790E-01  1.542E+01  6.166E-02  1.226E+00
   1    7    7     5     2    1.0205E+01  2.7894E-01   9.9265E+00  0.000E+00  0.000E+00  0.000E+00  1.05417E+03  6.732E-01  1.519E+01  7.594E-02  1.224E+00
   1    8    7     5     3    9.9265E+00  1.9221E-01   9.7343E+00  0.000E+00  0.000E+00  0.000E+00  1.04992E+03  6.676E-01  1.497E+01  5.241E-02  1.223E+00
   1    8    6     5     4    9.7343E+00  1.3577E-01   9.5985E+00  0.000E+00  0.000E+00  0.000E+00  1.04691E+03  6.637E-01  1.482E+01  3.706E-02  1.221E+00
   1    9    6     6     1    5.8650E+01  3.0201E-01   5.8348E+01  0.000E+00  0.000E+00  0.000E+00  1.04476E+03  2.034E+00  1.200E+01  6.000E-02  1.678E+00
   1   10    7     6     2    5.8348E+01  3.0164E-01   5.8047E+01  0.000E+00  0.000E+00  0.000E+00  1.04021E+03  2.027E+00  1.200E+01  6.000E-02  1.676E+00
   1   11    7     6     3    5.8047E+01  3.0126E-01   5.7745E+01  0.000E+00  0.000E+00  0.000E+00  1.03566E+03  2.021E+00  1.200E+01  6.000E-02  1.674E+00
   1   12    7     6     4    5.7745E+01  3.0088E-01   5.7445E+01  0.000E+00  0.000E+00  0.000E+00  1.03111E+03  2.015E+00  1.200E+01  6.000E-02  1.672E+00
   1   13    7     6     5    5.7445E+01  1.9557E-02   5.7425E+01  0.000E+00  0.000E+00  0.000E+00  1.02792E+03  2.011E+00  1.200E+01  2.400E-02  2.716E-01
   1   14    9     7     1    1.5000E+02  1.3350E+00   1.4866E+02  0.000E+00  0.000E+00  0.000E+00  1.03987E+03  2.288E+00  5.529E+01  5.593E-01  7.957E-01
   1   13    8     7     2    1.4866E+02  1.8309E+00   1.4683E+02  0.000E+00  0.000E+00  0.000E+00  1.03478E+03  2.279E+00  5.526E+01  6.148E-01  9.927E-01
   1   13    7     7     3    1.4683E+02  1.4433E+00   1.4539E+02  0.000E+00  0.000E+00  0.000E+00  1.02969E+03  2.271E+00  5.522E+01  5.585E-01  8.615E-01
   1   13    6     8     1    2.0282E+02  1.0334E+00   2.0178E+02  0.000E+00  0.000E+00  0.000E+00  1.02503E+03  3.151E+00  4.569E+01  4.656E-01  7.398E-01
   1   13    5     8     2    2.0178E+02  2.2869E-01   2.0155E+02  0.000E+00  0.000E+00  0.000E+00  1.01877E+03  3.148E+00  4.564E+01  4.651E-01  1.639E-01
   1   13    4     8     3    2.0155E+02 -2.0703E+00   2.0362E+02  0.000E+00  0.000E+00  0.000E+00  1.01253E+03  3.153E+00  4.572E+01  4.659E+00 -1.481E-01
   1   13    3     8     4    2.0362E+02 -3.2634E+00   2.0689E+02  0.000E+00  0.000E+00  0.000E+00  1.00629E+03  3.168E+00  4.594E+01  4.682E+00 -2.324E-01
   1   13    2     8     5    2.0689E+02 -2.0910E+00   2.0898E+02  0.000E+00  0.000E+00  0.000E+00  1.00006E+03  3.184E+00  4.617E+01  4.704E+00 -1.482E-01
   1   13    1     8     6    2.0898E+02 -1.6691E+00   2.1065E+02  0.000E+00  0.000E+00  0.000E+00  9.95070E+02  3.195E+00  4.632E+01  2.832E+00 -1.964E-01
   1    8    6     9     1    0.0000E+00  0.0000E+00   0.0000E+00  0.000E+00  0.000E+00  0.000E+00  1.07875E+03  0.000E+00  4.000E+00  0.000E+00  1.000E+00
   1    8    5     9     2    0.0000E+00  0.0000E+00   0.0000E+00  0.000E+00  0.000E+00  0.000E+00  1.07825E+03  0.000E+00  4.000E+00  0.000E+00  1.000E+00





UNSATURATED ZONE PACKAGE VOLUMETRIC BUDGET FOR  TIME STEP    30 STRESS PERIOD    3
  ------------------------------------------------------------------------------



     CUMULATIVE VOLUMES      L**3       RATES FOR THIS TIME STEP      L**3/T
     ------------------                 ------------------------

           IN:                                      IN:
           ---                                      ---
        INFILTRATION =    23256673.1162          INFILTRATION =           4.4075

          OUT:                                     OUT:
          ----                                     ----
              UZF ET =     3813499.6316                UZF ET =           0.7250
        UZF RECHARGE =       73224.0000          UZF RECHARGE =       0.0000E+00

            IN - OUT =    19369949.4846              IN - OUT =           3.6825

          STORAGE:                                 STORAGE:
          --------                                 --------
      STORAGE CHANGE =    19369949.3667        STORAGE CHANGE =           3.6825

 PERCENT DISCREPANCY IS DIFFERENCE BETWEEN IN-OUT MINUS CHANGE IN STORAGE
 DIVIDED BY THE AVERAGE OF IN AND OUT TIMES 100

 PERCENT DISCREPANCY =           0.00     PERCENT DISCREPANCY =           0.00






1
  VOLUMETRIC BUDGET FOR AGRICULTURAL FIELDS AT TIME STEP   30, STRESS PERIOD   3
  ------------------------------------------------------------------------------

     CUMULATIVE VOLUMES      L**3       RATES FOR THIS TIME STEP      L**3/T
     ------------------                 ------------------------

           IN:                                      IN:
           ---                                      ---
               AG WELLS  =           0.0000                 AG WELLS  =           0.0000
      DIVERSION SEGMENTS =           0.0000        DIVERSION SEGMENTS =           0.0000
           GW IRRIGATION =           0.0000             GW IRRIGATION =           0.0000
           SW IRRIGATION =           0.0000             SW IRRIGATION =           0.0000
        SYSTEM LOSSES GW =           0.0000          SYSTEM LOSSES GW =           0.0000
        SYSTEM LOSSES SW =           0.0000          SYSTEM LOSSES SW =           0.0000

                TOTAL IN =           0.0000                  TOTAL IN =           0.0000

          OUT:                                     OUT:
          ----                                     ----
               AG WELLS  =           0.0000                 AG WELLS  =           0.0000
      DIVERSION SEGMENTS =           0.0000        DIVERSION SEGMENTS =           0.0000
           GW IRRIGATION =           0.0000             GW IRRIGATION =           0.0000
           SW IRRIGATION =           0.0000             SW IRRIGATION =           0.0000
        SYSTEM LOSSES GW =           0.0000          SYSTEM LOSSES GW =           0.0000
        SYSTEM LOSSES SW =           0.0000          SYSTEM LOSSES SW =           0.0000

               TOTAL OUT =           0.0000                 TOTAL OUT =           0.0000

                IN - OUT =           0.0000                  IN - OUT =           0.0000

     PERCENT DISCREPANCY =           0.00         PERCENT DISCREPANCY =           0.00



1
  VOLUMETRIC BUDGET FOR ENTIRE MODEL AT END OF TIME STEP   30, STRESS PERIOD   3
  ------------------------------------------------------------------------------

     CUMULATIVE VOLUMES      L**3       RATES FOR THIS TIME STEP      L**3/T
     ------------------                 ------------------------

           IN:                                      IN:
           ---                                      ---
             STORAGE     =     3122516.0000               STORAGE     =           0.4872
       CONSTANT HEAD     =           0.0000         CONSTANT HEAD     =           0.0000
     HEAD DEP BOUNDS     =     1527280.1250       HEAD DEP BOUNDS     =           0.2857
      STREAM LEAKAGE     =    61979672.0000        STREAM LEAKAGE     =          12.8226
        UZF RECHARGE     =       73223.9531          UZF RECHARGE     =           0.0000
               GW ET     =           0.0000                 GW ET     =           0.0000
     SURFACE LEAKAGE     =           0.0000       SURFACE LEAKAGE     =           0.0000
           AG WELLS      =           0.0000             AG WELLS      =           0.0000

                TOTAL IN =    66702692.0000                  TOTAL IN =          13.5955

          OUT:                                     OUT:
          ----                                     ----
             STORAGE     =     9107252.0000               STORAGE     =           4.2117
       CONSTANT HEAD     =           0.0000         CONSTANT HEAD     =           0.0000
     HEAD DEP BOUNDS     =     1544993.8750       HEAD DEP BOUNDS     =           0.2910
      STREAM LEAKAGE     =    56052144.0000        STREAM LEAKAGE     =           9.0938
        UZF RECHARGE     =           0.0000          UZF RECHARGE     =           0.0000
               GW ET     =           0.0000                 GW ET     =           0.0000
     SURFACE LEAKAGE     =           0.0000       SURFACE LEAKAGE     =           0.0000
           AG WELLS      =           0.0000             AG WELLS      =           0.0000

               TOTAL OUT =    66704392.0000                 TOTAL OUT =          13.5965

                IN - OUT =       -1700.0000                  IN - OUT =      -1.0576E-03

     PERCENT DISCREPANCY =          -0.00         PERCENT DISCREPANCY =          -0.01






         TIME SUMMARY AT END OF TIME STEP   30 IN STRESS PERIOD    3
                    SECONDS     MINUTES      HOURS       DAYS        YEARS
                    -----------------------------------------------------------
   TIME STEP LENGTH  87667.      1461.1      24.352      1.0147     2.77799E-03
 STRESS PERIOD TIME 2.63000E+06  43833.      730.56      30.440     8.33397E-02
         TOTAL TIME 5.34640E+06  89107.      1485.1      61.880     0.16942    
1
1
                            STRESS PERIOD NO.    4, LENGTH =   2630000.    
                            -----------------------------------------------

                              NUMBER OF TIME STEPS =    30

                               MULTIPLIER FOR DELT =     1.000

                            INITIAL TIME STEP SIZE =   87666.66    

 REUSING NON-PARAMETER GHB CELLS FROM LAST STRESS PERIOD

      2 GHB CELLS

 REUSING STREAM SEGMENT DATA FROM LAST STRESS PERIOD



            AREAL INFILTRATION RATE
 READING ON UNIT   19 WITH FORMAT: (10F4.0)            

            1           2           3           4           5           6           7           8           9          10
 ........................................................................................................................
   1   1.2000E-09   0.000       0.000       0.000       0.000       0.000       0.000       0.000       0.000       0.000    
   2   2.1000E-09  2.0000E-09  8.0000E-10  8.5000E-09   0.000       0.000       0.000       0.000       0.000       0.000    
   3   5.0000E-10  1.1000E-09  8.8000E-09  5.5000E-09   0.000       0.000       0.000       0.000       0.000       0.000    
   4   8.5000E-09  1.1000E-09  1.1000E-09  1.1000E-09  2.0000E-09   0.000       0.000       0.000       0.000       0.000    
   5   8.5000E-09  1.1000E-09  1.1000E-09  1.1000E-09  1.1000E-09   0.000       0.000       0.000       0.000       0.000    
   6   8.5000E-09  5.2000E-09  2.1000E-09  1.1000E-09  1.5000E-09   0.000       0.000       0.000       0.000       0.000    
   7   8.5000E-09  5.2000E-09  2.1000E-09  1.2000E-09  2.0000E-09   0.000       0.000       0.000       0.000       0.000    
   8   5.0000E-10  5.2000E-09  2.1000E-09  1.2000E-09  5.0000E-09   0.000       0.000       0.000       0.000       0.000    
   9   5.0000E-10  5.2000E-09  2.1000E-09  1.2000E-09  5.0000E-09   0.000       0.000       0.000       0.000       0.000    
  10   5.0000E-10  5.2000E-09  2.1000E-09  1.2000E-09  5.8000E-09   0.000       0.000       0.000       0.000       0.000    
  11   1.0000E-10  1.1000E-09  1.1000E-09  1.2000E-09  5.0000E-09   0.000       0.000       0.000       0.000       0.000    
  12   1.1000E-09  1.1000E-09  1.1000E-09  1.1000E-09  2.0000E-09   0.000       0.000       0.000       0.000       0.000    
  13   1.1000E-09  2.2000E-09  2.2000E-09  2.1000E-09  1.0000E-09   0.000       0.000       0.000       0.000       0.000    
  14   2.0000E-10  5.5000E-09  5.5000E-09  5.2000E-09  1.0000E-09   0.000       0.000       0.000       0.000       0.000    
  15    0.000      8.8000E-09  8.8000E-09   0.000       0.000       0.000       0.000       0.000       0.000       0.000    

                  ET RATE =  5.000000E-10

 USING ET EXTINCTION DEPTH FROM PREVIOUS STRESS PERIOD. CURRENT PERIOD IS:       4

 USING EXTINCTION WATER CONTENT FROM PREVIOUS STRESS PERIOD. CURRENT PERIOD IS:       4

 USING AIR ENTRY PRESSURE FROM PREVIOUS STRESS PERIOD. CURRENT PERIOD IS:       4

 USING ROOT PRESSURE HEAD FROM PREVIOUS STRESS PERIOD. CURRENT PERIOD IS:       4

 USING ROOT ACTIVITY FROM PREVIOUS STRESS PERIOD. CURRENT PERIOD IS:       4

 PROCESSING AG STRESS PERIOD DATA

 READING AG STRESS PERIOD DATA

 READING IRRIGATION SEGMENT

 READING IRRIGATION WELL

 READING SUPPLEMENTAL WELL

 END PROCESSING AG STRESS PERIOD DATA OPTIONS
 
 SOLVING FOR HEAD 
                                                   Max.-Head-Change                         Max.-Flux-Residual
  Residual-Control   Outer-Iter.   Inner-Iter.     Column Row Layer    Maximum-Head-Change  Column Row Layer    Maximum-Flux-Residual          L2-NORM 
          0                 1           2             2   13     1       0.9722706591E-02       4   13    1         0.5574255494E+00      0.1192908535E+01
          0                 2           2             4   13     1      -0.9333061353E-03       4   13    1        -0.5513982280E-01      0.1166980764E+00
          0                 3           1             4   13     1       0.6258911565E-04       4   13    1         0.3801787017E-02      0.7929388182E-02

    ------------------------------------------------
       NWT REQUIRED            3 OUTER ITERATIONS 
       AND A TOTAL OF          5 INNER ITERATIONS.
    ------------------------------------------------

 NO OUTPUT CONTROL FOR STRESS PERIOD    4   TIME STEP    1
 
 SOLVING FOR HEAD 
                                                   Max.-Head-Change                         Max.-Flux-Residual
  Residual-Control   Outer-Iter.   Inner-Iter.     Column Row Layer    Maximum-Head-Change  Column Row Layer    Maximum-Flux-Residual          L2-NORM 
          0                 1           2             2   13     1       0.8971061845E-02       2   13    1         0.5067236770E+00      0.1125586528E+01
          0                 2           2             4   13     1      -0.8448097948E-03       4   13    1        -0.4987501123E-01      0.1102302457E+00
          0                 3           1             4   13     1       0.5665856758E-04       4   13    1         0.3439018086E-02      0.7500750881E-02

    ------------------------------------------------
       NWT REQUIRED            3 OUTER ITERATIONS 
       AND A TOTAL OF          5 INNER ITERATIONS.
    ------------------------------------------------

 NO OUTPUT CONTROL FOR STRESS PERIOD    4   TIME STEP    2
 
 SOLVING FOR HEAD 
                                                   Max.-Head-Change                         Max.-Flux-Residual
  Residual-Control   Outer-Iter.   Inner-Iter.     Column Row Layer    Maximum-Head-Change  Column Row Layer    Maximum-Flux-Residual          L2-NORM 
          0                 1           2             2   13     1       0.8278338575E-02       2   13    1         0.4675355386E+00      0.1065456309E+01
          0                 2           2             2   13     1      -0.7684702094E-03       4   13    1        -0.4514471967E-01      0.1044579349E+00
          0                 3           1             4   13     1       0.5129399535E-04       4   13    1         0.3111011880E-02      0.7116533049E-02

    ------------------------------------------------
       NWT REQUIRED            3 OUTER ITERATIONS 
       AND A TOTAL OF          5 INNER ITERATIONS.
    ------------------------------------------------

 NO OUTPUT CONTROL FOR STRESS PERIOD    4   TIME STEP    3
 
 SOLVING FOR HEAD 
                                                   Max.-Head-Change                         Max.-Flux-Residual
  Residual-Control   Outer-Iter.   Inner-Iter.     Column Row Layer    Maximum-Head-Change  Column Row Layer    Maximum-Flux-Residual          L2-NORM 
          0                 1           2             2   13     1       0.7639760265E-02       2   13    1         0.4314124332E+00      0.1011783666E+01
          0                 2           2             2   13     1      -0.7094925626E-03       2   13    1        -0.4118273604E-01      0.9931139464E-01
          0                 3           1             4   13     1       0.4650368715E-04       4   13    1         0.2818176009E-02      0.6778388382E-02

    ------------------------------------------------
       NWT REQUIRED            3 OUTER ITERATIONS 
       AND A TOTAL OF          5 INNER ITERATIONS.
    ------------------------------------------------

 NO OUTPUT CONTROL FOR STRESS PERIOD    4   TIME STEP    4
 
 SOLVING FOR HEAD 
                                                   Max.-Head-Change                         Max.-Flux-Residual
  Residual-Control   Outer-Iter.   Inner-Iter.     Column Row Layer    Maximum-Head-Change  Column Row Layer    Maximum-Flux-Residual          L2-NORM 
          0                 1           2             2   13     1       0.7051271913E-02       2   13    1         0.3981248034E+00      0.9639309827E+00
          0                 2           2             2   13     1      -0.6550697631E-03       2   13    1        -0.3801813461E-01      0.9472602238E-01
          0                 3           1             2    2     1       0.4352505581E-04       4   13    1         0.2552272193E-02      0.6475463038E-02

    ------------------------------------------------
       NWT REQUIRED            3 OUTER ITERATIONS 
       AND A TOTAL OF          5 INNER ITERATIONS.
    ------------------------------------------------

 NO OUTPUT CONTROL FOR STRESS PERIOD    4   TIME STEP    5
 
 SOLVING FOR HEAD 
                                                   Max.-Head-Change                         Max.-Flux-Residual
  Residual-Control   Outer-Iter.   Inner-Iter.     Column Row Layer    Maximum-Head-Change  Column Row Layer    Maximum-Flux-Residual          L2-NORM 
          0                 1           2             2    2     1       0.6530578794E-02       2   13    1         0.3674415631E+00      0.9212705001E+00
          0                 2           2             2    2     1      -0.6352488475E-03       2   13    1        -0.3510023980E-01      0.9064137031E-01
          0                 3           1             2    2     1       0.4325807581E-04       2    2    1         0.2386429274E-02      0.6206956021E-02

    ------------------------------------------------
       NWT REQUIRED            3 OUTER ITERATIONS 
       AND A TOTAL OF          5 INNER ITERATIONS.
    ------------------------------------------------

 NO OUTPUT CONTROL FOR STRESS PERIOD    4   TIME STEP    6
 
 SOLVING FOR HEAD 
                                                   Max.-Head-Change                         Max.-Flux-Residual
  Residual-Control   Outer-Iter.   Inner-Iter.     Column Row Layer    Maximum-Head-Change  Column Row Layer    Maximum-Flux-Residual          L2-NORM 
          0                 1           2             2    2     1       0.6490744694E-02       2   13    1         0.3391661976E+00      0.8832702168E+00
          0                 2           2             2    2     1      -0.6313740483E-03       2    2    1        -0.3388241289E-01      0.8700450367E-01
          0                 3           1             2    2     1       0.4299421659E-04       2    2    1         0.2371768941E-02      0.5967429474E-02

    ------------------------------------------------
       NWT REQUIRED            3 OUTER ITERATIONS 
       AND A TOTAL OF          5 INNER ITERATIONS.
    ------------------------------------------------

 NO OUTPUT CONTROL FOR STRESS PERIOD    4   TIME STEP    7
 
 SOLVING FOR HEAD 
                                                   Max.-Head-Change                         Max.-Flux-Residual
  Residual-Control   Outer-Iter.   Inner-Iter.     Column Row Layer    Maximum-Head-Change  Column Row Layer    Maximum-Flux-Residual          L2-NORM 
          0                 1           2             2    2     1       0.6451547572E-02       2    2    1         0.3367622684E+00      0.8494204730E+00
          0                 2           2             2    2     1      -0.6275612092E-03       2    2    1        -0.3367632998E-01      0.8376818847E-01
          0                 3           1             2    2     1       0.4273457678E-04       2    2    1         0.2357343150E-02      0.5755239223E-02

    ------------------------------------------------
       NWT REQUIRED            3 OUTER ITERATIONS 
       AND A TOTAL OF          5 INNER ITERATIONS.
    ------------------------------------------------

 NO OUTPUT CONTROL FOR STRESS PERIOD    4   TIME STEP    8
 
 SOLVING FOR HEAD 
                                                   Max.-Head-Change                         Max.-Flux-Residual
  Residual-Control   Outer-Iter.   Inner-Iter.     Column Row Layer    Maximum-Head-Change  Column Row Layer    Maximum-Flux-Residual          L2-NORM 
          0                 1           2             2    2     1       0.6412804297E-02       2    2    1         0.3347254048E+00      0.8192800563E+00
          0                 2           2             2    2     1      -0.6237925182E-03       2    2    1        -0.3347264186E-01      0.8088706971E-01
          0                 3           1             2    2     1       0.4247794296E-04       2    2    1         0.2343084981E-02      0.5565583269E-02

    ------------------------------------------------
       NWT REQUIRED            3 OUTER ITERATIONS 
       AND A TOTAL OF          5 INNER ITERATIONS.
    ------------------------------------------------

 NO OUTPUT CONTROL FOR STRESS PERIOD    4   TIME STEP    9
 
 SOLVING FOR HEAD 
                                                   Max.-Head-Change                         Max.-Flux-Residual
  Residual-Control   Outer-Iter.   Inner-Iter.     Column Row Layer    Maximum-Head-Change  Column Row Layer    Maximum-Flux-Residual          L2-NORM 
          0                 1           2             2    2     1       0.6374594176E-02       2    2    1         0.3327166124E+00      0.7924175737E+00
          0                 2           2             2    2     1      -0.6200756893E-03       2    2    1        -0.3327176089E-01      0.7831954059E-01
          0                 3           1             2    2     1       0.4222484101E-04       2    2    1         0.2329023331E-02      0.5396843721E-02

    ------------------------------------------------
       NWT REQUIRED            3 OUTER ITERATIONS 
       AND A TOTAL OF          5 INNER ITERATIONS.
    ------------------------------------------------

 NO OUTPUT CONTROL FOR STRESS PERIOD    4   TIME STEP   10
 
 SOLVING FOR HEAD 
                                                   Max.-Head-Change                         Max.-Flux-Residual
  Residual-Control   Outer-Iter.   Inner-Iter.     Column Row Layer    Maximum-Head-Change  Column Row Layer    Maximum-Flux-Residual          L2-NORM 
          0                 1           2             2    2     1       0.6336821868E-02       2    2    1         0.3307309230E+00      0.7684701539E+00
          0                 2           2             2    2     1      -0.6164014488E-03       2    2    1        -0.3307319029E-01      0.7602822035E-01
          0                 3           1             2    2     1       0.4197463926E-04       2    2    1         0.2315123403E-02      0.5244456114E-02

    ------------------------------------------------
       NWT REQUIRED            3 OUTER ITERATIONS 
       AND A TOTAL OF          5 INNER ITERATIONS.
    ------------------------------------------------

 NO OUTPUT CONTROL FOR STRESS PERIOD    4   TIME STEP   11
 
 SOLVING FOR HEAD 
                                                   Max.-Head-Change                         Max.-Flux-Residual
  Residual-Control   Outer-Iter.   Inner-Iter.     Column Row Layer    Maximum-Head-Change  Column Row Layer    Maximum-Flux-Residual          L2-NORM 
          0                 1           2             2    2     1       0.6299566920E-02       2    2    1         0.3287724739E+00      0.7470982445E+00
          0                 2           2             2    2     1      -0.6127775325E-03       2    2    1        -0.3287734370E-01      0.7398882127E-01
          0                 3           1             2    2     1       0.4172786406E-04       2    2    1         0.2301414133E-02      0.5112478476E-02

    ------------------------------------------------
       NWT REQUIRED            3 OUTER ITERATIONS 
       AND A TOTAL OF          5 INNER ITERATIONS.
    ------------------------------------------------

 NO OUTPUT CONTROL FOR STRESS PERIOD    4   TIME STEP   12
 
 SOLVING FOR HEAD 
                                                   Max.-Head-Change                         Max.-Flux-Residual
  Residual-Control   Outer-Iter.   Inner-Iter.     Column Row Layer    Maximum-Head-Change  Column Row Layer    Maximum-Flux-Residual          L2-NORM 
          0                 1           2             2    2     1       0.6262821188E-02       2    2    1         0.3268408495E+00      0.7280149039E+00
          0                 2           2             2    2     1      -0.6092031503E-03       2    2    1        -0.3268417963E-01      0.7216422007E-01
          0                 3           1             2    2     1       0.4148446217E-04       2    2    1         0.2287892670E-02      0.4992805565E-02

    ------------------------------------------------
       NWT REQUIRED            3 OUTER ITERATIONS 
       AND A TOTAL OF          5 INNER ITERATIONS.
    ------------------------------------------------

 NO OUTPUT CONTROL FOR STRESS PERIOD    4   TIME STEP   13
 
 SOLVING FOR HEAD 
                                                   Max.-Head-Change                         Max.-Flux-Residual
  Residual-Control   Outer-Iter.   Inner-Iter.     Column Row Layer    Maximum-Head-Change  Column Row Layer    Maximum-Flux-Residual          L2-NORM 
          0                 1           2             2    2     1       0.6226576539E-02       2    2    1         0.3249356272E+00      0.7109371275E+00
          0                 2           2             2    2     1      -0.6056775112E-03       2    2    1        -0.3249365586E-01      0.7053146659E-01
          0                 3           1             2    2     1       0.4124437962E-04       2    2    1         0.2274556029E-02      0.4885643951E-02

    ------------------------------------------------
       NWT REQUIRED            3 OUTER ITERATIONS 
       AND A TOTAL OF          5 INNER ITERATIONS.
    ------------------------------------------------

 NO OUTPUT CONTROL FOR STRESS PERIOD    4   TIME STEP   14
 
 SOLVING FOR HEAD 
                                                   Max.-Head-Change                         Max.-Flux-Residual
  Residual-Control   Outer-Iter.   Inner-Iter.     Column Row Layer    Maximum-Head-Change  Column Row Layer    Maximum-Flux-Residual          L2-NORM 
          0                 1           2             2    2     1       0.6190738554E-02       2    2    1         0.3230518444E+00      0.6956271146E+00
          0                 2           2             2    2     1      -0.6021914291E-03       2    2    1        -0.3230527603E-01      0.6906579316E-01
          0                 3           1             2    2     1       0.4100699065E-04       2    2    1         0.2261369447E-02      0.4788872166E-02

    ------------------------------------------------
       NWT REQUIRED            3 OUTER ITERATIONS 
       AND A TOTAL OF          5 INNER ITERATIONS.
    ------------------------------------------------

 NO OUTPUT CONTROL FOR STRESS PERIOD    4   TIME STEP   15
 
 SOLVING FOR HEAD 
                                                   Max.-Head-Change                         Max.-Flux-Residual
  Residual-Control   Outer-Iter.   Inner-Iter.     Column Row Layer    Maximum-Head-Change  Column Row Layer    Maximum-Flux-Residual          L2-NORM 
          0                 1           2             2    2     1       0.6155387396E-02       2    2    1         0.3211936876E+00      0.6818809484E+00
          0                 2           2             2    2     1      -0.5987527019E-03       2    2    1        -0.3211945882E-01      0.6775017097E-01
          0                 3           1             2    2     1       0.4077282612E-04       2    2    1         0.2248362238E-02      0.4701977128E-02

    ------------------------------------------------
       NWT REQUIRED            3 OUTER ITERATIONS 
       AND A TOTAL OF          5 INNER ITERATIONS.
    ------------------------------------------------

 NO OUTPUT CONTROL FOR STRESS PERIOD    4   TIME STEP   16
 
 SOLVING FOR HEAD 
                                                   Max.-Head-Change                         Max.-Flux-Residual
  Residual-Control   Outer-Iter.   Inner-Iter.     Column Row Layer    Maximum-Head-Change  Column Row Layer    Maximum-Flux-Residual          L2-NORM 
          0                 1           2             2    2     1       0.6120514978E-02       2    2    1         0.3193607723E+00      0.6695131136E+00
          0                 2           2             2    2     1      -0.5953605445E-03       2    2    1        -0.3193616583E-01      0.6656507718E-01
          0                 3           1             2    2     1       0.4054183300E-04       2    2    1         0.2235531738E-02      0.4624002761E-02

    ------------------------------------------------
       NWT REQUIRED            3 OUTER ITERATIONS 
       AND A TOTAL OF          5 INNER ITERATIONS.
    ------------------------------------------------

 NO OUTPUT CONTROL FOR STRESS PERIOD    4   TIME STEP   17
 
 SOLVING FOR HEAD 
                                                   Max.-Head-Change                         Max.-Flux-Residual
  Residual-Control   Outer-Iter.   Inner-Iter.     Column Row Layer    Maximum-Head-Change  Column Row Layer    Maximum-Flux-Residual          L2-NORM 
          0                 1           2             2    2     1       0.6086114131E-02       2    2    1         0.3175526791E+00      0.6583460091E+00
          0                 2           2             2    2     1      -0.5920142585E-03       2    2    1        -0.3175535508E-01      0.6549363469E-01
          0                 3           1             2    2     1       0.4031396327E-04       2    2    1         0.2222874988E-02      0.4553167021E-02

    ------------------------------------------------
       NWT REQUIRED            3 OUTER ITERATIONS 
       AND A TOTAL OF          5 INNER ITERATIONS.
    ------------------------------------------------

 NO OUTPUT CONTROL FOR STRESS PERIOD    4   TIME STEP   18
 
 SOLVING FOR HEAD 
                                                   Max.-Head-Change                         Max.-Flux-Residual
  Residual-Control   Outer-Iter.   Inner-Iter.     Column Row Layer    Maximum-Head-Change  Column Row Layer    Maximum-Flux-Residual          L2-NORM 
          0                 1           2             2    2     1       0.6052090883E-02       2    2    1         0.3157644944E+00      0.6482385087E+00
          0                 2           2             2    2     1      -0.5887047028E-03       2    2    1        -0.3157653520E-01      0.6452328952E-01
          0                 3           1             2    2     1       0.4008859493E-04       2    2    1         0.2210357589E-02      0.4489075408E-02

    ------------------------------------------------
       NWT REQUIRED            3 OUTER ITERATIONS 
       AND A TOTAL OF          5 INNER ITERATIONS.
    ------------------------------------------------

 NO OUTPUT CONTROL FOR STRESS PERIOD    4   TIME STEP   19
 
 SOLVING FOR HEAD 
                                                   Max.-Head-Change                         Max.-Flux-Residual
  Residual-Control   Outer-Iter.   Inner-Iter.     Column Row Layer    Maximum-Head-Change  Column Row Layer    Maximum-Flux-Residual          L2-NORM 
          0                 1           2             2    2     1       0.6018525482E-02       2    2    1         0.3140004295E+00      0.6390656029E+00
          0                 2           2             2    2     1      -0.5854396839E-03       2    2    1        -0.3140012731E-01      0.6364062448E-01
          0                 3           1             2    2     1       0.3986625980E-04       2    2    1         0.2198009075E-02      0.4430653063E-02

    ------------------------------------------------
       NWT REQUIRED            3 OUTER ITERATIONS 
       AND A TOTAL OF          5 INNER ITERATIONS.
    ------------------------------------------------

 NO OUTPUT CONTROL FOR STRESS PERIOD    4   TIME STEP   20
 
 SOLVING FOR HEAD 
                                                   Max.-Head-Change                         Max.-Flux-Residual
  Residual-Control   Outer-Iter.   Inner-Iter.     Column Row Layer    Maximum-Head-Change  Column Row Layer    Maximum-Flux-Residual          L2-NORM 
          0                 1           2             2    2     1       0.5985410748E-02       2    2    1         0.3122601035E+00      0.6307118737E+00
          0                 2           2             2    2     1      -0.5822185028E-03       2    2    1        -0.3122609337E-01      0.6283607002E-01
          0                 3           1             2    2     1       0.3964690983E-04       2    2    1         0.2185826703E-02      0.4377158048E-02

    ------------------------------------------------
       NWT REQUIRED            3 OUTER ITERATIONS 
       AND A TOTAL OF          5 INNER ITERATIONS.
    ------------------------------------------------

 NO OUTPUT CONTROL FOR STRESS PERIOD    4   TIME STEP   21
 
 SOLVING FOR HEAD 
                                                   Max.-Head-Change                         Max.-Flux-Residual
  Residual-Control   Outer-Iter.   Inner-Iter.     Column Row Layer    Maximum-Head-Change  Column Row Layer    Maximum-Flux-Residual          L2-NORM 
          0                 1           2             2    2     1       0.5952739973E-02       2    2    1         0.3105431442E+00      0.6230912680E+00
          0                 2           2             2    2     1      -0.5790405076E-03       2    2    1        -0.3105439614E-01      0.6210132591E-01
          0                 3           1             2    2     1       0.3943050005E-04       2    2    1         0.2173807899E-02      0.4328364469E-02

    ------------------------------------------------
       NWT REQUIRED            3 OUTER ITERATIONS 
       AND A TOTAL OF          5 INNER ITERATIONS.
    ------------------------------------------------

 NO OUTPUT CONTROL FOR STRESS PERIOD    4   TIME STEP   22
 
 SOLVING FOR HEAD 
                                                   Max.-Head-Change                         Max.-Flux-Residual
  Residual-Control   Outer-Iter.   Inner-Iter.     Column Row Layer    Maximum-Head-Change  Column Row Layer    Maximum-Flux-Residual          L2-NORM 
          0                 1           2             2    2     1       0.5920419299E-02       2    2    1         0.3088446607E+00      0.6160982454E+00
          0                 2           2             2    2     1      -0.5758965674E-03       2    2    1        -0.3088454649E-01      0.6142556045E-01
          0                 3           1             2    2     1       0.3921640919E-04       2    2    1         0.2161918419E-02      0.4282577254E-02

    ------------------------------------------------
       NWT REQUIRED            3 OUTER ITERATIONS 
       AND A TOTAL OF          5 INNER ITERATIONS.
    ------------------------------------------------

 NO OUTPUT CONTROL FOR STRESS PERIOD    4   TIME STEP   23
 
 SOLVING FOR HEAD 
                                                   Max.-Head-Change                         Max.-Flux-Residual
  Residual-Control   Outer-Iter.   Inner-Iter.     Column Row Layer    Maximum-Head-Change  Column Row Layer    Maximum-Flux-Residual          L2-NORM 
          0                 1           2             2    2     1       0.5888529810E-02       2    2    1         0.3071688723E+00      0.6096754791E+00
          0                 2           2             2    2     1      -0.5727945709E-03       2    2    1        -0.3071696639E-01      0.6080414603E-01
          0                 3           1             2    2     1       0.3900517522E-04       2    2    1         0.2150187827E-02      0.4241014587E-02

    ------------------------------------------------
       NWT REQUIRED            3 OUTER ITERATIONS 
       AND A TOTAL OF          5 INNER ITERATIONS.
    ------------------------------------------------

 NO OUTPUT CONTROL FOR STRESS PERIOD    4   TIME STEP   24
 
 SOLVING FOR HEAD 
                                                   Max.-Head-Change                         Max.-Flux-Residual
  Residual-Control   Outer-Iter.   Inner-Iter.     Column Row Layer    Maximum-Head-Change  Column Row Layer    Maximum-Flux-Residual          L2-NORM 
          0                 1           2             2    2     1       0.5857064406E-02       2    2    1         0.3055154403E+00      0.6037480306E+00
          0                 2           2             2    2     1      -0.5697338265E-03       2    2    1        -0.3055162196E-01      0.6022991270E-01
          0                 3           1             2    2     1       0.3879675032E-04       2    2    1         0.2138613727E-02      0.4202617003E-02

    ------------------------------------------------
       NWT REQUIRED            3 OUTER ITERATIONS 
       AND A TOTAL OF          5 INNER ITERATIONS.
    ------------------------------------------------

 NO OUTPUT CONTROL FOR STRESS PERIOD    4   TIME STEP   25
 
 SOLVING FOR HEAD 
                                                   Max.-Head-Change                         Max.-Flux-Residual
  Residual-Control   Outer-Iter.   Inner-Iter.     Column Row Layer    Maximum-Head-Change  Column Row Layer    Maximum-Flux-Residual          L2-NORM 
          0                 1           2             2    2     1       0.5826016811E-02       2    2    1         0.3038839966E+00      0.5982711145E+00
          0                 2           2             2    2     1      -0.5667137235E-03       2    2    1        -0.3038847637E-01      0.5969851488E-01
          0                 3           1             2    2     1       0.3859109237E-04       2    2    1         0.2127193536E-02      0.4167209451E-02

    ------------------------------------------------
       NWT REQUIRED            3 OUTER ITERATIONS 
       AND A TOTAL OF          5 INNER ITERATIONS.
    ------------------------------------------------

 NO OUTPUT CONTROL FOR STRESS PERIOD    4   TIME STEP   26
 
 SOLVING FOR HEAD 
                                                   Max.-Head-Change                         Max.-Flux-Residual
  Residual-Control   Outer-Iter.   Inner-Iter.     Column Row Layer    Maximum-Head-Change  Column Row Layer    Maximum-Flux-Residual          L2-NORM 
          0                 1           2             2    2     1       0.5795293960E-02       2    2    1         0.3022696725E+00      0.5931740800E+00
          0                 2           2             2    2     1      -0.5637252105E-03       2    2    1        -0.3022704280E-01      0.5920296943E-01
          0                 3           1             2    2     1       0.3838758578E-04       2    2    1         0.2115893184E-02      0.4133916810E-02

    ------------------------------------------------
       NWT REQUIRED            3 OUTER ITERATIONS 
       AND A TOTAL OF          5 INNER ITERATIONS.
    ------------------------------------------------

 NO OUTPUT CONTROL FOR STRESS PERIOD    4   TIME STEP   27
 
 SOLVING FOR HEAD 
                                                   Max.-Head-Change                         Max.-Flux-Residual
  Residual-Control   Outer-Iter.   Inner-Iter.     Column Row Layer    Maximum-Head-Change  Column Row Layer    Maximum-Flux-Residual          L2-NORM 
          0                 1           2             2    2     1       0.5764977044E-02       2    2    1         0.3006767291E+00      0.5884281405E+00
          0                 2           2             2    2     1      -0.5607761839E-03       2    2    1        -0.3006774729E-01      0.5874119944E-01
          0                 3           1             2    2     1       0.3818676851E-04       2    2    1         0.2104742531E-02      0.4102706027E-02

    ------------------------------------------------
       NWT REQUIRED            3 OUTER ITERATIONS 
       AND A TOTAL OF          5 INNER ITERATIONS.
    ------------------------------------------------

 NO OUTPUT CONTROL FOR STRESS PERIOD    4   TIME STEP   28
 
 SOLVING FOR HEAD 
                                                   Max.-Head-Change                         Max.-Flux-Residual
  Residual-Control   Outer-Iter.   Inner-Iter.     Column Row Layer    Maximum-Head-Change  Column Row Layer    Maximum-Flux-Residual          L2-NORM 
          0                 1           2             2    2     1       0.5735060105E-02       2    2    1         0.2991048331E+00      0.5839925268E+00
          0                 2           2             2    2     1      -0.5578660642E-03       2    2    1        -0.2991055658E-01      0.5830814900E-01
          0                 3           1             2    2     1       0.3798859962E-04       2    2    1         0.2093739157E-02      0.4073305524E-02

    ------------------------------------------------
       NWT REQUIRED            3 OUTER ITERATIONS 
       AND A TOTAL OF          5 INNER ITERATIONS.
    ------------------------------------------------

 NO OUTPUT CONTROL FOR STRESS PERIOD    4   TIME STEP   29
 
 SOLVING FOR HEAD 
                                                   Max.-Head-Change                         Max.-Flux-Residual
  Residual-Control   Outer-Iter.   Inner-Iter.     Column Row Layer    Maximum-Head-Change  Column Row Layer    Maximum-Flux-Residual          L2-NORM 
          0                 1           2             2    2     1       0.4577995966E-02       2    2    1         0.2386111534E+00      0.5557742994E+00
          0                 2           2             2    2     1      -0.4453148114E-03       2    2    1        -0.2386115789E-01      0.5516760178E-01
          0                 3           1             2    2     1       0.3032428173E-04       2    2    1         0.1670281384E-02      0.3824227391E-02

    ------------------------------------------------
       NWT REQUIRED            3 OUTER ITERATIONS 
       AND A TOTAL OF          5 INNER ITERATIONS.
    ------------------------------------------------

 NO OUTPUT CONTROL FOR STRESS PERIOD    4   TIME STEP   30



 STREAM LISTING     PERIOD      4   STEP       30

 LAYER ROW COL. STREAM  RCH.  FLOW INTO     FLOW TO   FLOW OUT OF   OVRLND.     DIRECT     STREAM       STREAM     STREAM     STREAM   STREAMBED  STREAMBED
                SEG.NO.  NO.  STRM. RCH.    AQUIFER    STRM. RCH.    RUNOFF     PRECIP       ET          HEAD       DEPTH      WIDTH   CONDCTNC.   GRADIENT

   1    1    1     1     1    4.6685E+01  3.2585E-01   4.6359E+01  0.000E+00  0.000E+00  0.000E+00  1.09443E+03  1.378E+00  1.654E+01  7.443E-02  1.459E+00
   1    2    2     1     2    4.6359E+01  5.0484E-01   4.5855E+01  0.000E+00  0.000E+00  0.000E+00  1.08943E+03  1.375E+00  1.648E+01  1.154E-01  1.458E+00
   1    3    3     1     3    4.5855E+01  4.3074E-01   4.5424E+01  0.000E+00  0.000E+00  0.000E+00  1.08379E+03  1.372E+00  1.642E+01  9.852E-02  1.457E+00
   1    3    4     1     4    4.5424E+01  3.9680E-01   4.5027E+01  0.000E+00  0.000E+00  0.000E+00  1.07878E+03  1.369E+00  1.636E+01  9.082E-02  1.456E+00
   1    4    5     2     1    4.3027E+01  3.6413E-01   4.2663E+01  0.000E+00  0.000E+00  0.000E+00  1.07360E+03  1.668E+00  1.200E+01  7.800E-02  1.556E+00
   1    5    6     2     2    4.2663E+01  2.7965E-01   4.2383E+01  0.000E+00  0.000E+00  0.000E+00  1.06817E+03  1.661E+00  1.200E+01  6.000E-02  1.554E+00
   1    6    6     2     3    4.2383E+01  2.7926E-01   4.2104E+01  0.000E+00  0.000E+00  0.000E+00  1.06345E+03  1.654E+00  1.200E+01  6.000E-02  1.551E+00
   1    7    6     2     4    4.2104E+01  2.7886E-01   4.1825E+01  0.000E+00  0.000E+00  0.000E+00  1.05872E+03  1.648E+00  1.200E+01  6.000E-02  1.549E+00
   1    8    6     2     5    4.1825E+01  2.7847E-01   4.1547E+01  0.000E+00  0.000E+00  0.000E+00  1.05400E+03  1.641E+00  1.200E+01  6.000E-02  1.547E+00
   1    3    5     3     1    2.0000E+00  2.8252E-01   1.7175E+00  0.000E+00  0.000E+00  0.000E+00  1.07555E+03  1.909E+00  9.636E+00  7.227E-02  1.955E+00
   1    3    6     3     2    1.7175E+00  2.4905E-01   1.4684E+00  0.000E+00  0.000E+00  0.000E+00  1.07264E+03  1.727E+00  8.909E+00  6.682E-02  1.864E+00
   1    3    7     3     3    1.4684E+00  1.9718E-01   1.2712E+00  0.000E+00  0.000E+00  0.000E+00  1.06987E+03  1.555E+00  8.218E+00  5.547E-02  1.777E+00
   1    4    8     3     4    1.2712E+00  2.2567E-01   1.0456E+00  0.000E+00  0.000E+00  0.000E+00  1.06682E+03  1.364E+00  7.455E+00  6.709E-02  1.682E+00
   1    5    8     3     5    1.0456E+00  1.5790E-01   8.8768E-01  0.000E+00  0.000E+00  0.000E+00  1.06362E+03  1.164E+00  6.655E+00  4.991E-02  1.582E+00
   1    6    8     3     6    8.8768E-01  5.5980E-02   8.3170E-01  0.000E+00  0.000E+00  0.000E+00  1.06158E+03  1.036E+00  6.145E+00  1.844E-02  1.518E+00
   1    5   10     4     1    1.0000E+01  9.0919E-02   9.9091E+00  0.000E+00  0.000E+00  0.000E+00  1.07836E+03  6.368E-01  1.000E+01  2.500E-02  1.212E+00
   1    5    9     4     2    9.9091E+00  1.8158E-01   9.7275E+00  0.000E+00  0.000E+00  0.000E+00  1.07154E+03  6.315E-01  1.000E+01  5.000E-02  1.211E+00
   1    6    8     4     3    9.7275E+00  1.2689E-01   9.6006E+00  0.000E+00  0.000E+00  0.000E+00  1.06381E+03  6.256E-01  1.000E+01  3.500E-02  1.209E+00
   1    6    8     5     1    1.0432E+01  2.2686E-01   1.0205E+01  0.000E+00  0.000E+00  0.000E+00  1.05868E+03  6.790E-01  1.542E+01  6.166E-02  1.226E+00
   1    7    7     5     2    1.0205E+01  2.7894E-01   9.9265E+00  0.000E+00  0.000E+00  0.000E+00  1.05417E+03  6.732E-01  1.519E+01  7.594E-02  1.224E+00
   1    8    7     5     3    9.9265E+00  1.9221E-01   9.7343E+00  0.000E+00  0.000E+00  0.000E+00  1.04992E+03  6.676E-01  1.497E+01  5.241E-02  1.223E+00
   1    8    6     5     4    9.7343E+00  1.3577E-01   9.5985E+00  0.000E+00  0.000E+00  0.000E+00  1.04691E+03  6.637E-01  1.482E+01  3.706E-02  1.221E+00
   1    9    6     6     1    5.1145E+01  2.9237E-01   5.0853E+01  0.000E+00  0.000E+00  0.000E+00  1.04460E+03  1.873E+00  1.200E+01  6.000E-02  1.624E+00
   1   10    7     6     2    5.0853E+01  2.9199E-01   5.0561E+01  0.000E+00  0.000E+00  0.000E+00  1.04005E+03  1.866E+00  1.200E+01  6.000E-02  1.622E+00
   1   11    7     6     3    5.0561E+01  2.9160E-01   5.0269E+01  0.000E+00  0.000E+00  0.000E+00  1.03550E+03  1.860E+00  1.200E+01  6.000E-02  1.620E+00
   1   12    7     6     4    5.0269E+01  2.9121E-01   4.9978E+01  0.000E+00  0.000E+00  0.000E+00  1.03094E+03  1.854E+00  1.200E+01  6.000E-02  1.618E+00
   1   13    7     6     5    4.9978E+01  1.5046E-02   4.9963E+01  0.000E+00  0.000E+00  0.000E+00  1.02776E+03  1.850E+00  1.200E+01  2.400E-02  2.090E-01
   1   14    9     7     1    1.5000E+02  1.3355E+00   1.4866E+02  0.000E+00  0.000E+00  0.000E+00  1.03987E+03  2.288E+00  5.529E+01  5.593E-01  7.959E-01
   1   13    8     7     2    1.4866E+02  1.8270E+00   1.4684E+02  0.000E+00  0.000E+00  0.000E+00  1.03478E+03  2.279E+00  5.526E+01  6.148E-01  9.906E-01
   1   13    7     7     3    1.4684E+02  1.4284E+00   1.4541E+02  0.000E+00  0.000E+00  0.000E+00  1.02969E+03  2.271E+00  5.522E+01  5.585E-01  8.526E-01
   1   13    6     8     1    1.9537E+02  9.7131E-01   1.9440E+02  0.000E+00  0.000E+00  0.000E+00  1.02498E+03  3.107E+00  4.506E+01  4.591E-01  7.052E-01
   1   13    5     8     2    1.9440E+02  1.7795E-01   1.9422E+02  0.000E+00  0.000E+00  0.000E+00  1.01873E+03  3.104E+00  4.501E+01  4.586E-01  1.293E-01
   1   13    4     8     3    1.9422E+02 -2.6472E+00   1.9687E+02  0.000E+00  0.000E+00  0.000E+00  1.01249E+03  3.111E+00  4.511E+01  4.597E+00 -1.919E-01
   1   13    3     8     4    1.9687E+02 -3.8119E+00   2.0068E+02  0.000E+00  0.000E+00  0.000E+00  1.00626E+03  3.131E+00  4.539E+01  4.626E+00 -2.747E-01
   1   13    2     8     5    2.0068E+02 -2.7019E+00   2.0338E+02  0.000E+00  0.000E+00  0.000E+00  1.00002E+03  3.150E+00  4.567E+01  4.654E+00 -1.935E-01
   1   13    1     8     6    2.0338E+02 -2.0096E+00   2.0539E+02  0.000E+00  0.000E+00  0.000E+00  9.95038E+02  3.163E+00  4.587E+01  2.805E+00 -2.388E-01
   1    8    6     9     1    0.0000E+00  0.0000E+00   0.0000E+00  0.000E+00  0.000E+00  0.000E+00  1.07875E+03  0.000E+00  4.000E+00  0.000E+00  1.000E+00
   1    8    5     9     2    0.0000E+00  0.0000E+00   0.0000E+00  0.000E+00  0.000E+00  0.000E+00  1.07825E+03  0.000E+00  4.000E+00  0.000E+00  1.000E+00





UNSATURATED ZONE PACKAGE VOLUMETRIC BUDGET FOR  TIME STEP    30 STRESS PERIOD    4
  ------------------------------------------------------------------------------



     CUMULATIVE VOLUMES      L**3       RATES FOR THIS TIME STEP      L**3/T
     ------------------                 ------------------------

           IN:                                      IN:
           ---                                      ---
        INFILTRATION =    34848397.6743          INFILTRATION =           4.4075

          OUT:                                     OUT:
          ----                                     ----
              UZF ET =     5720249.5208                UZF ET =           0.7250
        UZF RECHARGE =       73224.0000          UZF RECHARGE =       0.0000E+00

            IN - OUT =    29054924.1536              IN - OUT =           3.6825

          STORAGE:                                 STORAGE:
          --------                                 --------
      STORAGE CHANGE =    29054923.9743        STORAGE CHANGE =           3.6825

 PERCENT DISCREPANCY IS DIFFERENCE BETWEEN IN-OUT MINUS CHANGE IN STORAGE
 DIVIDED BY THE AVERAGE OF IN AND OUT TIMES 100

 PERCENT DISCREPANCY =           0.00     PERCENT DISCREPANCY =           0.00






1
  VOLUMETRIC BUDGET FOR AGRICULTURAL FIELDS AT TIME STEP   30, STRESS PERIOD   4
  ------------------------------------------------------------------------------

     CUMULATIVE VOLUMES      L**3       RATES FOR THIS TIME STEP      L**3/T
     ------------------                 ------------------------

           IN:                                      IN:
           ---                                      ---
               AG WELLS  =           0.0000                 AG WELLS  =           0.0000
      DIVERSION SEGMENTS =           0.0000        DIVERSION SEGMENTS =           0.0000
           GW IRRIGATION =           0.0000             GW IRRIGATION =           0.0000
           SW IRRIGATION =           0.0000             SW IRRIGATION =           0.0000
        SYSTEM LOSSES GW =           0.0000          SYSTEM LOSSES GW =           0.0000
        SYSTEM LOSSES SW =           0.0000          SYSTEM LOSSES SW =           0.0000

                TOTAL IN =           0.0000                  TOTAL IN =           0.0000

          OUT:                                     OUT:
          ----                                     ----
               AG WELLS  =           0.0000                 AG WELLS  =           0.0000
      DIVERSION SEGMENTS =           0.0000        DIVERSION SEGMENTS =           0.0000
           GW IRRIGATION =           0.0000             GW IRRIGATION =           0.0000
           SW IRRIGATION =           0.0000             SW IRRIGATION =           0.0000
        SYSTEM LOSSES GW =           0.0000          SYSTEM LOSSES GW =           0.0000
        SYSTEM LOSSES SW =           0.0000          SYSTEM LOSSES SW =           0.0000

               TOTAL OUT =           0.0000                 TOTAL OUT =           0.0000

                IN - OUT =           0.0000                  IN - OUT =           0.0000

     PERCENT DISCREPANCY =           0.00         PERCENT DISCREPANCY =           0.00



1
  VOLUMETRIC BUDGET FOR ENTIRE MODEL AT END OF TIME STEP   30, STRESS PERIOD   4
  ------------------------------------------------------------------------------

     CUMULATIVE VOLUMES      L**3       RATES FOR THIS TIME STEP      L**3/T
     ------------------                 ------------------------

           IN:                                      IN:
           ---                                      ---
             STORAGE     =     4352765.5000               STORAGE     =           0.9334
       CONSTANT HEAD     =           0.0000         CONSTANT HEAD     =           0.0000
     HEAD DEP BOUNDS     =     2278729.0000       HEAD DEP BOUNDS     =           0.2857
      STREAM LEAKAGE     =    95891928.0000        STREAM LEAKAGE     =          12.4623
        UZF RECHARGE     =       73223.9531          UZF RECHARGE     =           0.0000
               GW ET     =           0.0000                 GW ET     =           0.0000
     SURFACE LEAKAGE     =           0.0000       SURFACE LEAKAGE     =           0.0000
           AG WELLS      =           0.0000             AG WELLS      =           0.0000

                TOTAL IN =   102596648.0000                  TOTAL IN =          13.6815

          OUT:                                     OUT:
          ----                                     ----
             STORAGE     =    18029952.0000               STORAGE     =           2.2167
       CONSTANT HEAD     =           0.0000         CONSTANT HEAD     =           0.0000
     HEAD DEP BOUNDS     =     2316606.7500       HEAD DEP BOUNDS     =           0.2947
      STREAM LEAKAGE     =    82253976.0000        STREAM LEAKAGE     =          11.1705
        UZF RECHARGE     =           0.0000          UZF RECHARGE     =           0.0000
               GW ET     =       9.2444E-07                 GW ET     =       3.7438E-13
     SURFACE LEAKAGE     =           0.0000       SURFACE LEAKAGE     =           0.0000
           AG WELLS      =           0.0000             AG WELLS      =           0.0000

               TOTAL OUT =   102600536.0000                 TOTAL OUT =          13.6819

                IN - OUT =       -3888.0000                  IN - OUT =      -3.6430E-04

     PERCENT DISCREPANCY =          -0.00         PERCENT DISCREPANCY =          -0.00






         TIME SUMMARY AT END OF TIME STEP   30 IN STRESS PERIOD    4
                    SECONDS     MINUTES      HOURS       DAYS        YEARS
                    -----------------------------------------------------------
   TIME STEP LENGTH  87667.      1461.1      24.352      1.0147     2.77799E-03
 STRESS PERIOD TIME 2.63000E+06  43833.      730.56      30.440     8.33397E-02
         TOTAL TIME 7.97639E+06 1.32940E+05  2215.7      92.319     0.25276    
1
1
                            STRESS PERIOD NO.    5, LENGTH =   2630000.    
                            -----------------------------------------------

                              NUMBER OF TIME STEPS =    30

                               MULTIPLIER FOR DELT =     1.000

                            INITIAL TIME STEP SIZE =   87666.66    

 REUSING NON-PARAMETER GHB CELLS FROM LAST STRESS PERIOD

      2 GHB CELLS

 REUSING STREAM SEGMENT DATA FROM LAST STRESS PERIOD



            AREAL INFILTRATION RATE
 READING ON UNIT   19 WITH FORMAT: (10F4.0)            

            1           2           3           4           5           6           7           8           9          10
 ........................................................................................................................
   1   1.2000E-09   0.000       0.000       0.000       0.000       0.000       0.000       0.000       0.000       0.000    
   2   2.1000E-09  2.0000E-09  8.0000E-10  8.5000E-09   0.000       0.000       0.000       0.000       0.000       0.000    
   3   5.0000E-10  1.1000E-09  8.8000E-09  5.5000E-09   0.000       0.000       0.000       0.000       0.000       0.000    
   4   8.5000E-09  1.1000E-09  1.1000E-09  1.1000E-09  2.0000E-09   0.000       0.000       0.000       0.000       0.000    
   5   8.5000E-09  1.1000E-09  1.1000E-09  1.1000E-09  1.1000E-09   0.000       0.000       0.000       0.000       0.000    
   6   8.5000E-09  5.2000E-09  2.1000E-09  1.1000E-09  1.5000E-09   0.000       0.000       0.000       0.000       0.000    
   7   8.5000E-09  5.2000E-09  2.1000E-09  1.2000E-09  2.0000E-09   0.000       0.000       0.000       0.000       0.000    
   8   5.0000E-10  5.2000E-09  2.1000E-09  1.2000E-09  5.0000E-09   0.000       0.000       0.000       0.000       0.000    
   9   5.0000E-10  5.2000E-09  2.1000E-09  1.2000E-09  5.0000E-09   0.000       0.000       0.000       0.000       0.000    
  10   5.0000E-10  5.2000E-09  2.1000E-09  1.2000E-09  5.8000E-09   0.000       0.000       0.000       0.000       0.000    
  11   1.0000E-10  1.1000E-09  1.1000E-09  1.2000E-09  5.0000E-09   0.000       0.000       0.000       0.000       0.000    
  12   1.1000E-09  1.1000E-09  1.1000E-09  1.1000E-09  2.0000E-09   0.000       0.000       0.000       0.000       0.000    
  13   1.1000E-09  2.2000E-09  2.2000E-09  2.1000E-09  1.0000E-09   0.000       0.000       0.000       0.000       0.000    
  14   2.0000E-10  5.5000E-09  5.5000E-09  5.2000E-09  1.0000E-09   0.000       0.000       0.000       0.000       0.000    
  15    0.000      8.8000E-09  8.8000E-09   0.000       0.000       0.000       0.000       0.000       0.000       0.000    

                  ET RATE =  2.500000E-08

 USING ET EXTINCTION DEPTH FROM PREVIOUS STRESS PERIOD. CURRENT PERIOD IS:       5

 USING EXTINCTION WATER CONTENT FROM PREVIOUS STRESS PERIOD. CURRENT PERIOD IS:       5

 USING AIR ENTRY PRESSURE FROM PREVIOUS STRESS PERIOD. CURRENT PERIOD IS:       5

 USING ROOT PRESSURE HEAD FROM PREVIOUS STRESS PERIOD. CURRENT PERIOD IS:       5

 USING ROOT ACTIVITY FROM PREVIOUS STRESS PERIOD. CURRENT PERIOD IS:       5

 PROCESSING AG STRESS PERIOD DATA

 READING AG STRESS PERIOD DATA

 READING IRRIGATION SEGMENT

 READING IRRIGATION WELL

 READING SUPPLEMENTAL WELL

 END PROCESSING AG STRESS PERIOD DATA OPTIONS
 
 SOLVING FOR HEAD 
                                                   Max.-Head-Change                         Max.-Flux-Residual
  Residual-Control   Outer-Iter.   Inner-Iter.     Column Row Layer    Maximum-Head-Change  Column Row Layer    Maximum-Flux-Residual          L2-NORM 
          0                 1           2             4   13     1      -0.1222714911E-01       4   13    1        -0.7024657857E+00      0.1224192331E+01
          0                 2           2             4   13     1       0.1179399552E-02       4   13    1         0.6966745343E-01      0.1194285498E+00
          0                 3           1             4   13     1      -0.7937506521E-04       4   13    1        -0.4820750932E-02      0.8078693313E-02

    ------------------------------------------------
       NWT REQUIRED            3 OUTER ITERATIONS 
       AND A TOTAL OF          5 INNER ITERATIONS.
    ------------------------------------------------

 NO OUTPUT CONTROL FOR STRESS PERIOD    5   TIME STEP    1
 
 SOLVING FOR HEAD 
                                                   Max.-Head-Change                         Max.-Flux-Residual
  Residual-Control   Outer-Iter.   Inner-Iter.     Column Row Layer    Maximum-Head-Change  Column Row Layer    Maximum-Flux-Residual          L2-NORM 
          0                 1           2             4   13     1      -0.1106475518E-01       4   13    1        -0.6354242215E+00      0.1130050465E+01
          0                 2           2             4   13     1       0.7079227053E-03       4   13    1         0.4183887620E-01      0.7538347720E-01
          0                 3           2             4   13     1      -0.1600517249E-03       4   13    1        -0.9701916913E-02      0.1849801299E-01
          0                 4           1             4   13     1      -0.8114735535E-04       4   13    1        -0.4913182969E-02      0.8714623608E-02

    ------------------------------------------------
       NWT REQUIRED            4 OUTER ITERATIONS 
       AND A TOTAL OF          7 INNER ITERATIONS.
    ------------------------------------------------

 OUTPUT CONTROL FOR STRESS PERIOD    5   TIME STEP    2
    PRINT BUDGET
    SAVE BUDGET
 UBDSV1 SAVING "         STORAGE" ON UNIT 102 AT TIME STEP  2, STRESS PERIOD   5
 UBDSV2 SAVING "   CONSTANT HEAD" ON UNIT 102 AT TIME STEP  2, STRESS PERIOD   5
 UBDSV1 SAVING "FLOW RIGHT FACE " ON UNIT 102 AT TIME STEP  2, STRESS PERIOD   5
 UBDSV1 SAVING "FLOW FRONT FACE " ON UNIT 102 AT TIME STEP  2, STRESS PERIOD   5

  HEAD DEP BOUNDS   PERIOD    5   STEP     2
 BOUNDARY      1   LAYER   1   ROW    13   COL     1   RATE   -0.294273    
 BOUNDARY      2   LAYER   1   ROW    14   COL     9   RATE    0.285737    



 STREAM LISTING     PERIOD      5   STEP        2

 LAYER ROW COL. STREAM  RCH.  FLOW INTO     FLOW TO   FLOW OUT OF   OVRLND.     DIRECT     STREAM       STREAM     STREAM     STREAM   STREAMBED  STREAMBED
                SEG.NO.  NO.  STRM. RCH.    AQUIFER    STRM. RCH.    RUNOFF     PRECIP       ET          HEAD       DEPTH      WIDTH   CONDCTNC.   GRADIENT

   1    1    1     1     1    2.1000E+01  2.2591E-01   2.0774E+01  0.000E+00  0.000E+00  0.000E+00  1.09416E+03  1.115E+00  1.220E+01  5.490E-02  1.372E+00
   1    2    2     1     2    2.0774E+01  3.4916E-01   2.0425E+01  0.000E+00  0.000E+00  0.000E+00  1.08917E+03  1.110E+00  1.214E+01  8.495E-02  1.370E+00
   1    3    3     1     3    2.0425E+01  2.9709E-01   2.0128E+01  0.000E+00  0.000E+00  0.000E+00  1.08352E+03  1.105E+00  1.206E+01  7.238E-02  1.368E+00
   1    3    4     1     4    2.0128E+01  2.7299E-01   1.9855E+01  0.000E+00  0.000E+00  0.000E+00  1.07851E+03  1.100E+00  1.200E+01  6.659E-02  1.367E+00
   1    4    5     2     1    1.7855E+01  3.1056E-01   1.7544E+01  0.000E+00  0.000E+00  0.000E+00  1.07292E+03  9.816E-01  1.200E+01  7.800E-02  1.327E+00
   1    5    6     2     2    1.7544E+01  2.3834E-01   1.7306E+01  0.000E+00  0.000E+00  0.000E+00  1.06748E+03  9.724E-01  1.200E+01  6.000E-02  1.324E+00
   1    6    6     2     3    1.7306E+01  2.3786E-01   1.7068E+01  0.000E+00  0.000E+00  0.000E+00  1.06276E+03  9.644E-01  1.200E+01  6.000E-02  1.321E+00
   1    7    6     2     4    1.7068E+01  2.3738E-01   1.6831E+01  0.000E+00  0.000E+00  0.000E+00  1.05803E+03  9.564E-01  1.200E+01  6.000E-02  1.319E+00
   1    8    6     2     5    1.6831E+01  2.3690E-01   1.6594E+01  0.000E+00  0.000E+00  0.000E+00  1.05331E+03  9.483E-01  1.200E+01  6.000E-02  1.316E+00
   1    3    5     3     1    2.0000E+00  2.8252E-01   1.7175E+00  0.000E+00  0.000E+00  0.000E+00  1.07555E+03  1.909E+00  9.636E+00  7.227E-02  1.955E+00
   1    3    6     3     2    1.7175E+00  2.4905E-01   1.4684E+00  0.000E+00  0.000E+00  0.000E+00  1.07264E+03  1.727E+00  8.909E+00  6.682E-02  1.864E+00
   1    3    7     3     3    1.4684E+00  1.9718E-01   1.2712E+00  0.000E+00  0.000E+00  0.000E+00  1.06987E+03  1.555E+00  8.218E+00  5.547E-02  1.777E+00
   1    4    8     3     4    1.2712E+00  2.2567E-01   1.0456E+00  0.000E+00  0.000E+00  0.000E+00  1.06682E+03  1.364E+00  7.455E+00  6.709E-02  1.682E+00
   1    5    8     3     5    1.0456E+00  1.5790E-01   8.8768E-01  0.000E+00  0.000E+00  0.000E+00  1.06362E+03  1.164E+00  6.655E+00  4.991E-02  1.582E+00
   1    6    8     3     6    8.8768E-01  5.5980E-02   8.3170E-01  0.000E+00  0.000E+00  0.000E+00  1.06158E+03  1.036E+00  6.145E+00  1.844E-02  1.518E+00
   1    5   10     4     1    1.0000E+01  9.0919E-02   9.9091E+00  0.000E+00  0.000E+00  0.000E+00  1.07836E+03  6.368E-01  1.000E+01  2.500E-02  1.212E+00
   1    5    9     4     2    9.9091E+00  1.8158E-01   9.7275E+00  0.000E+00  0.000E+00  0.000E+00  1.07154E+03  6.315E-01  1.000E+01  5.000E-02  1.211E+00
   1    6    8     4     3    9.7275E+00  1.2689E-01   9.6006E+00  0.000E+00  0.000E+00  0.000E+00  1.06381E+03  6.256E-01  1.000E+01  3.500E-02  1.209E+00
   1    6    8     5     1    1.0432E+01  2.2686E-01   1.0205E+01  0.000E+00  0.000E+00  0.000E+00  1.05868E+03  6.790E-01  1.542E+01  6.166E-02  1.226E+00
   1    7    7     5     2    1.0205E+01  2.7894E-01   9.9265E+00  0.000E+00  0.000E+00  0.000E+00  1.05417E+03  6.732E-01  1.519E+01  7.594E-02  1.224E+00
   1    8    7     5     3    9.9265E+00  1.9221E-01   9.7343E+00  0.000E+00  0.000E+00  0.000E+00  1.04992E+03  6.676E-01  1.497E+01  5.241E-02  1.223E+00
   1    8    6     5     4    9.7343E+00  1.3577E-01   9.5985E+00  0.000E+00  0.000E+00  0.000E+00  1.04691E+03  6.637E-01  1.482E+01  3.706E-02  1.221E+00
   1    9    6     6     1    2.4385E+01  2.5233E-01   2.4132E+01  0.000E+00  0.000E+00  0.000E+00  1.04393E+03  1.206E+00  1.200E+01  6.000E-02  1.402E+00
   1   10    7     6     2    2.4132E+01  2.5188E-01   2.3880E+01  0.000E+00  0.000E+00  0.000E+00  1.03938E+03  1.198E+00  1.200E+01  6.000E-02  1.399E+00
   1   11    7     6     3    2.3880E+01  2.5143E-01   2.3629E+01  0.000E+00  0.000E+00  0.000E+00  1.03483E+03  1.191E+00  1.200E+01  6.000E-02  1.397E+00
   1   12    7     6     4    2.3629E+01  2.5098E-01   2.3378E+01  0.000E+00  0.000E+00  0.000E+00  1.03027E+03  1.183E+00  1.200E+01  6.000E-02  1.394E+00
   1   13    7     6     5    2.3378E+01 -1.0645E-02   2.3389E+01  0.000E+00  0.000E+00  0.000E+00  1.02709E+03  1.179E+00  1.200E+01  2.400E-01 -1.478E-02
   1   14    9     7     1    1.5000E+02  1.3355E+00   1.4866E+02  0.000E+00  0.000E+00  0.000E+00  1.03987E+03  2.288E+00  5.529E+01  5.593E-01  7.959E-01
   1   13    8     7     2    1.4866E+02  1.8267E+00   1.4684E+02  0.000E+00  0.000E+00  0.000E+00  1.03478E+03  2.279E+00  5.526E+01  6.148E-01  9.904E-01
   1   13    7     7     3    1.4684E+02  1.4280E+00   1.4541E+02  0.000E+00  0.000E+00  0.000E+00  1.02969E+03  2.271E+00  5.522E+01  5.585E-01  8.524E-01
   1   13    6     8     1    1.6880E+02  8.4961E-01   1.6795E+02  0.000E+00  0.000E+00  0.000E+00  1.02482E+03  2.943E+00  4.267E+01  4.349E-01  6.513E-01
   1   13    5     8     2    1.6795E+02  9.7835E-02   1.6785E+02  0.000E+00  0.000E+00  0.000E+00  1.01856E+03  2.940E+00  4.263E+01  4.344E-01  7.507E-02
   1   13    4     8     3    1.6785E+02 -3.1193E+00   1.7097E+02  0.000E+00  0.000E+00  0.000E+00  1.01232E+03  2.950E+00  4.277E+01  4.359E+00 -2.386E-01
   1   13    3     8     4    1.7097E+02 -4.2247E+00   1.7519E+02  0.000E+00  0.000E+00  0.000E+00  1.00610E+03  2.974E+00  4.312E+01  4.394E+00 -3.205E-01
   1   13    2     8     5    1.7519E+02 -3.1525E+00   1.7835E+02  0.000E+00  0.000E+00  0.000E+00  9.99872E+02  2.997E+00  4.346E+01  4.429E+00 -2.373E-01
   1   13    1     8     6    1.7835E+02 -2.2841E+00   1.8063E+02  0.000E+00  0.000E+00  0.000E+00  9.94889E+02  3.014E+00  4.371E+01  2.672E+00 -2.849E-01
   1    8    6     9     1    1.8078E+00  0.0000E+00   1.8078E+00  0.000E+00  0.000E+00  0.000E+00  1.07950E+03  7.529E-01  4.000E+00  0.000E+00  1.251E+00
   1    8    5     9     2    1.8078E+00  0.0000E+00   1.8078E+00  0.000E+00  0.000E+00  0.000E+00  1.07900E+03  7.529E-01  4.000E+00  0.000E+00  1.251E+00



 UBDSV3 SAVING "           GW ET" ON UNIT  61 AT TIME STEP  2, STRESS PERIOD   5
 UBDSV3 SAVING "    UZF RECHARGE" ON UNIT  61 AT TIME STEP  2, STRESS PERIOD   5
 UBDSV3 SAVING " SURFACE LEAKAGE" ON UNIT  61 AT TIME STEP  2, STRESS PERIOD   5
 UBDSV3 SAVING "       HORT+DUNN" ON UNIT  61 AT TIME STEP  2, STRESS PERIOD   5
 UBDSV3 SAVING "  STORAGE CHANGE" ON UNIT  61 AT TIME STEP  2, STRESS PERIOD   5


UNSATURATED ZONE PACKAGE VOLUMETRIC BUDGET FOR  TIME STEP     2 STRESS PERIOD    5
  ------------------------------------------------------------------------------



     CUMULATIVE VOLUMES      L**3       RATES FOR THIS TIME STEP      L**3/T
     ------------------                 ------------------------

           IN:                                      IN:
           ---                                      ---
        INFILTRATION =    35779664.5505          INFILTRATION =           6.2153

          OUT:                                     OUT:
          ----                                     ----
              UZF ET =    11097836.4329                UZF ET =          25.0948
        UZF RECHARGE =       73224.0000          UZF RECHARGE =       0.0000E+00

            IN - OUT =    24608604.1177              IN - OUT =         -18.8795

          STORAGE:                                 STORAGE:
          --------                                 --------
      STORAGE CHANGE =    24608603.8471        STORAGE CHANGE =         -18.8795

 PERCENT DISCREPANCY IS DIFFERENCE BETWEEN IN-OUT MINUS CHANGE IN STORAGE
 DIVIDED BY THE AVERAGE OF IN AND OUT TIMES 100

 PERCENT DISCREPANCY =           0.00     PERCENT DISCREPANCY =           0.00






 

            AG WELLS      PERIOD    5   STEP   2
 AG WELL      1   LAYER   1   ROW     6   COL     4   RATE     0.00000    
 AG WELL      2   LAYER   1   ROW     6   COL     5   RATE     0.00000    
 AG WELL      3   LAYER   1   ROW     7   COL     4   RATE     0.00000    
 AG WELL      4   LAYER   1   ROW     7   COL     5   RATE     0.00000    
 AG WELL      5   LAYER   1   ROW     8   COL     4   RATE     0.00000    
 AG WELL      6   LAYER   1   ROW     8   COL     5   RATE     0.00000    
 
 

   DIVERSION SEGMENTS     PERIOD    5   STEP   2
 SEGMENT      9   RATE     1.80778    
 
 

        SW IRRIGATION     PERIOD    5   STEP   2
 SEGMENT      9   ROW     6   COL     4   RATE    0.301303    
 SEGMENT      9   ROW     6   COL     5   RATE    0.301303    
 SEGMENT      9   ROW     7   COL     4   RATE    0.301303    
 SEGMENT      9   ROW     7   COL     5   RATE    0.301303    
 SEGMENT      9   ROW     8   COL     4   RATE    0.301303    
 SEGMENT      9   ROW     8   COL     5   RATE    0.301303    
 
 

        GW IRRIGATION     PERIOD    5   STEP   2
 AG WELL      1   ROW     6   COL     4   RATE     0.00000    
 AG WELL      2   ROW     6   COL     5   RATE     0.00000    
 AG WELL      3   ROW     7   COL     4   RATE     0.00000    
 AG WELL      4   ROW     7   COL     5   RATE     0.00000    
 AG WELL      5   ROW     8   COL     4   RATE     0.00000    
 AG WELL      6   ROW     8   COL     5   RATE     0.00000    
 
1
  VOLUMETRIC BUDGET FOR AGRICULTURAL FIELDS AT TIME STEP    2, STRESS PERIOD   5
  ------------------------------------------------------------------------------

     CUMULATIVE VOLUMES      L**3       RATES FOR THIS TIME STEP      L**3/T
     ------------------                 ------------------------

           IN:                                      IN:
           ---                                      ---
               AG WELLS  =           0.0000                 AG WELLS  =           0.0000
      DIVERSION SEGMENTS =      158482.0625        DIVERSION SEGMENTS =           1.8078
           GW IRRIGATION =           0.0000             GW IRRIGATION =           0.0000
           SW IRRIGATION =           0.0000             SW IRRIGATION =           0.0000
        SYSTEM LOSSES GW =           0.0000          SYSTEM LOSSES GW =           0.0000
        SYSTEM LOSSES SW =           0.0000          SYSTEM LOSSES SW =           0.0000

                TOTAL IN =      158482.0625                  TOTAL IN =           1.8078

          OUT:                                     OUT:
          ----                                     ----
               AG WELLS  =           0.0000                 AG WELLS  =           0.0000
      DIVERSION SEGMENTS =           0.0000        DIVERSION SEGMENTS =           0.0000
           GW IRRIGATION =           0.0000             GW IRRIGATION =           0.0000
           SW IRRIGATION =      158485.2344             SW IRRIGATION =           1.8078
        SYSTEM LOSSES GW =           0.0000          SYSTEM LOSSES GW =           0.0000
        SYSTEM LOSSES SW =           0.0000          SYSTEM LOSSES SW =           0.0000

               TOTAL OUT =      158485.2344                 TOTAL OUT =           1.8078

                IN - OUT =          -3.1719                  IN - OUT =      -3.6120E-05

     PERCENT DISCREPANCY =          -0.00         PERCENT DISCREPANCY =          -0.00



1
  VOLUMETRIC BUDGET FOR ENTIRE MODEL AT END OF TIME STEP    2, STRESS PERIOD   5
  ------------------------------------------------------------------------------

     CUMULATIVE VOLUMES      L**3       RATES FOR THIS TIME STEP      L**3/T
     ------------------                 ------------------------

           IN:                                      IN:
           ---                                      ---
             STORAGE     =     4835225.5000               STORAGE     =           2.7276
       CONSTANT HEAD     =           0.0000         CONSTANT HEAD     =           0.0000
     HEAD DEP BOUNDS     =     2328828.0000       HEAD DEP BOUNDS     =           0.2857
      STREAM LEAKAGE     =    97884304.0000        STREAM LEAKAGE     =          11.3520
        UZF RECHARGE     =       73223.9531          UZF RECHARGE     =           0.0000
               GW ET     =           0.0000                 GW ET     =           0.0000
     SURFACE LEAKAGE     =           0.0000       SURFACE LEAKAGE     =           0.0000
           AG WELLS      =           0.0000             AG WELLS      =           0.0000

                TOTAL IN =   105121584.0000                  TOTAL IN =          14.3653

          OUT:                                     OUT:
          ----                                     ----
             STORAGE     =    18258520.0000               STORAGE     =           1.2789
       CONSTANT HEAD     =           0.0000         CONSTANT HEAD     =           0.0000
     HEAD DEP BOUNDS     =     2368221.0000       HEAD DEP BOUNDS     =           0.2943
      STREAM LEAKAGE     =    84498608.0000        STREAM LEAKAGE     =          12.7912
        UZF RECHARGE     =           0.0000          UZF RECHARGE     =           0.0000
               GW ET     =       1.1131E-05                 GW ET     =       1.1642E-10
     SURFACE LEAKAGE     =           0.0000       SURFACE LEAKAGE     =           0.0000
           AG WELLS      =           0.0000             AG WELLS      =           0.0000

               TOTAL OUT =   105125344.0000                 TOTAL OUT =          14.3644

                IN - OUT =       -3760.0000                  IN - OUT =       9.6703E-04

     PERCENT DISCREPANCY =          -0.00         PERCENT DISCREPANCY =           0.01






         TIME SUMMARY AT END OF TIME STEP    2 IN STRESS PERIOD    5
                    SECONDS     MINUTES      HOURS       DAYS        YEARS
                    -----------------------------------------------------------
   TIME STEP LENGTH  87667.      1461.1      24.352      1.0147     2.77799E-03
 STRESS PERIOD TIME 1.75333E+05  2922.2      48.704      2.0293     5.55598E-03
         TOTAL TIME 8.15173E+06 1.35862E+05  2264.4      94.349     0.25831    
1
 
 SOLVING FOR HEAD 
                                                   Max.-Head-Change                         Max.-Flux-Residual
  Residual-Control   Outer-Iter.   Inner-Iter.     Column Row Layer    Maximum-Head-Change  Column Row Layer    Maximum-Flux-Residual          L2-NORM 
          0                 1           2             2   13     1      -0.1004893639E-01       4   13    1        -0.5722080491E+00      0.1040504653E+01
          0                 2           2             4   13     1       0.3283304449E-03       4   13    1         0.1943751025E-01      0.4337500788E-01
          0                 3           2             4   13     1      -0.3263600489E-03       4   13    1        -0.1976874460E-01      0.3832449394E-01
          0                 4           2             4   13     1      -0.1464094663E-03       4   13    1        -0.8866027298E-02      0.1564355890E-01
          0                 5           1             4   13     1      -0.6717655370E-04       4   13    1        -0.4067808771E-02      0.7242738939E-02

    ------------------------------------------------
       NWT REQUIRED            5 OUTER ITERATIONS 
       AND A TOTAL OF          9 INNER ITERATIONS.
    ------------------------------------------------

 OUTPUT CONTROL FOR STRESS PERIOD    5   TIME STEP    3
    PRINT BUDGET
    SAVE BUDGET
 UBDSV1 SAVING "         STORAGE" ON UNIT 102 AT TIME STEP  3, STRESS PERIOD   5
 UBDSV2 SAVING "   CONSTANT HEAD" ON UNIT 102 AT TIME STEP  3, STRESS PERIOD   5
 UBDSV1 SAVING "FLOW RIGHT FACE " ON UNIT 102 AT TIME STEP  3, STRESS PERIOD   5
 UBDSV1 SAVING "FLOW FRONT FACE " ON UNIT 102 AT TIME STEP  3, STRESS PERIOD   5

  HEAD DEP BOUNDS   PERIOD    5   STEP     3
 BOUNDARY      1   LAYER   1   ROW    13   COL     1   RATE   -0.294059    
 BOUNDARY      2   LAYER   1   ROW    14   COL     9   RATE    0.285738    



 STREAM LISTING     PERIOD      5   STEP        3

 LAYER ROW COL. STREAM  RCH.  FLOW INTO     FLOW TO   FLOW OUT OF   OVRLND.     DIRECT     STREAM       STREAM     STREAM     STREAM   STREAMBED  STREAMBED
                SEG.NO.  NO.  STRM. RCH.    AQUIFER    STRM. RCH.    RUNOFF     PRECIP       ET          HEAD       DEPTH      WIDTH   CONDCTNC.   GRADIENT

   1    1    1     1     1    2.1000E+01  2.2591E-01   2.0774E+01  0.000E+00  0.000E+00  0.000E+00  1.09416E+03  1.115E+00  1.220E+01  5.490E-02  1.372E+00
   1    2    2     1     2    2.0774E+01  3.4916E-01   2.0425E+01  0.000E+00  0.000E+00  0.000E+00  1.08917E+03  1.110E+00  1.214E+01  8.495E-02  1.370E+00
   1    3    3     1     3    2.0425E+01  2.9709E-01   2.0128E+01  0.000E+00  0.000E+00  0.000E+00  1.08352E+03  1.105E+00  1.206E+01  7.238E-02  1.368E+00
   1    3    4     1     4    2.0128E+01  2.7299E-01   1.9855E+01  0.000E+00  0.000E+00  0.000E+00  1.07851E+03  1.100E+00  1.200E+01  6.659E-02  1.367E+00
   1    4    5     2     1    1.7855E+01  3.1056E-01   1.7544E+01  0.000E+00  0.000E+00  0.000E+00  1.07292E+03  9.816E-01  1.200E+01  7.800E-02  1.327E+00
   1    5    6     2     2    1.7544E+01  2.3834E-01   1.7306E+01  0.000E+00  0.000E+00  0.000E+00  1.06748E+03  9.724E-01  1.200E+01  6.000E-02  1.324E+00
   1    6    6     2     3    1.7306E+01  2.3786E-01   1.7068E+01  0.000E+00  0.000E+00  0.000E+00  1.06276E+03  9.644E-01  1.200E+01  6.000E-02  1.321E+00
   1    7    6     2     4    1.7068E+01  2.3738E-01   1.6831E+01  0.000E+00  0.000E+00  0.000E+00  1.05803E+03  9.564E-01  1.200E+01  6.000E-02  1.319E+00
   1    8    6     2     5    1.6831E+01  2.3690E-01   1.6594E+01  0.000E+00  0.000E+00  0.000E+00  1.05331E+03  9.483E-01  1.200E+01  6.000E-02  1.316E+00
   1    3    5     3     1    2.0000E+00  2.8252E-01   1.7175E+00  0.000E+00  0.000E+00  0.000E+00  1.07555E+03  1.909E+00  9.636E+00  7.227E-02  1.955E+00
   1    3    6     3     2    1.7175E+00  2.4905E-01   1.4684E+00  0.000E+00  0.000E+00  0.000E+00  1.07264E+03  1.727E+00  8.909E+00  6.682E-02  1.864E+00
   1    3    7     3     3    1.4684E+00  1.9718E-01   1.2712E+00  0.000E+00  0.000E+00  0.000E+00  1.06987E+03  1.555E+00  8.218E+00  5.547E-02  1.777E+00
   1    4    8     3     4    1.2712E+00  2.2567E-01   1.0456E+00  0.000E+00  0.000E+00  0.000E+00  1.06682E+03  1.364E+00  7.455E+00  6.709E-02  1.682E+00
   1    5    8     3     5    1.0456E+00  1.5790E-01   8.8768E-01  0.000E+00  0.000E+00  0.000E+00  1.06362E+03  1.164E+00  6.655E+00  4.991E-02  1.582E+00
   1    6    8     3     6    8.8768E-01  5.5980E-02   8.3170E-01  0.000E+00  0.000E+00  0.000E+00  1.06158E+03  1.036E+00  6.145E+00  1.844E-02  1.518E+00
   1    5   10     4     1    1.0000E+01  9.0919E-02   9.9091E+00  0.000E+00  0.000E+00  0.000E+00  1.07836E+03  6.368E-01  1.000E+01  2.500E-02  1.212E+00
   1    5    9     4     2    9.9091E+00  1.8158E-01   9.7275E+00  0.000E+00  0.000E+00  0.000E+00  1.07154E+03  6.315E-01  1.000E+01  5.000E-02  1.211E+00
   1    6    8     4     3    9.7275E+00  1.2689E-01   9.6006E+00  0.000E+00  0.000E+00  0.000E+00  1.06381E+03  6.256E-01  1.000E+01  3.500E-02  1.209E+00
   1    6    8     5     1    1.0432E+01  2.2686E-01   1.0205E+01  0.000E+00  0.000E+00  0.000E+00  1.05868E+03  6.790E-01  1.542E+01  6.166E-02  1.226E+00
   1    7    7     5     2    1.0205E+01  2.7894E-01   9.9265E+00  0.000E+00  0.000E+00  0.000E+00  1.05417E+03  6.732E-01  1.519E+01  7.594E-02  1.224E+00
   1    8    7     5     3    9.9265E+00  1.9221E-01   9.7343E+00  0.000E+00  0.000E+00  0.000E+00  1.04992E+03  6.676E-01  1.497E+01  5.241E-02  1.223E+00
   1    8    6     5     4    9.7343E+00  1.3577E-01   9.5985E+00  0.000E+00  0.000E+00  0.000E+00  1.04691E+03  6.637E-01  1.482E+01  3.706E-02  1.221E+00
   1    9    6     6     1    2.2788E+01  2.4920E-01   2.2538E+01  0.000E+00  0.000E+00  0.000E+00  1.04388E+03  1.153E+00  1.200E+01  6.000E-02  1.384E+00
   1   10    7     6     2    2.2538E+01  2.4874E-01   2.2290E+01  0.000E+00  0.000E+00  0.000E+00  1.03933E+03  1.146E+00  1.200E+01  6.000E-02  1.382E+00
   1   11    7     6     3    2.2290E+01  2.4828E-01   2.2041E+01  0.000E+00  0.000E+00  0.000E+00  1.03477E+03  1.138E+00  1.200E+01  6.000E-02  1.379E+00
   1   12    7     6     4    2.2041E+01  2.4783E-01   2.1793E+01  0.000E+00  0.000E+00  0.000E+00  1.03022E+03  1.130E+00  1.200E+01  6.000E-02  1.377E+00
   1   13    7     6     5    2.1793E+01 -2.3237E-02   2.1817E+01  0.000E+00  0.000E+00  0.000E+00  1.02704E+03  1.127E+00  1.200E+01  2.400E-01 -3.227E-02
   1   14    9     7     1    1.5000E+02  1.3355E+00   1.4866E+02  0.000E+00  0.000E+00  0.000E+00  1.03987E+03  2.288E+00  5.529E+01  5.593E-01  7.959E-01
   1   13    8     7     2    1.4866E+02  1.8266E+00   1.4684E+02  0.000E+00  0.000E+00  0.000E+00  1.03478E+03  2.279E+00  5.526E+01  6.148E-01  9.904E-01
   1   13    7     7     3    1.4684E+02  1.4280E+00   1.4541E+02  0.000E+00  0.000E+00  0.000E+00  1.02969E+03  2.271E+00  5.522E+01  5.585E-01  8.524E-01
   1   13    6     8     1    1.6723E+02  8.4212E-01   1.6638E+02  0.000E+00  0.000E+00  0.000E+00  1.02481E+03  2.932E+00  4.251E+01  4.332E-01  6.480E-01
   1   13    5     8     2    1.6638E+02  9.2999E-02   1.6629E+02  0.000E+00  0.000E+00  0.000E+00  1.01855E+03  2.929E+00  4.247E+01  4.327E-01  7.164E-02
   1   13    4     8     3    1.6629E+02 -3.1118E+00   1.6940E+02  0.000E+00  0.000E+00  0.000E+00  1.01231E+03  2.939E+00  4.261E+01  4.342E+00 -2.389E-01
   1   13    3     8     4    1.6940E+02 -4.2165E+00   1.7362E+02  0.000E+00  0.000E+00  0.000E+00  1.00609E+03  2.962E+00  4.296E+01  4.377E+00 -3.211E-01
   1   13    2     8     5    1.7362E+02 -3.1442E+00   1.7676E+02  0.000E+00  0.000E+00  0.000E+00  9.99861E+02  2.986E+00  4.330E+01  4.412E+00 -2.375E-01
   1   13    1     8     6    1.7676E+02 -2.2899E+00   1.7905E+02  0.000E+00  0.000E+00  0.000E+00  9.94878E+02  3.003E+00  4.355E+01  2.663E+00 -2.867E-01
   1    8    6     9     1    3.4047E+00  0.0000E+00   3.4047E+00  0.000E+00  0.000E+00  0.000E+00  1.07992E+03  1.173E+00  4.000E+00  0.000E+00  1.391E+00
   1    8    5     9     2    3.4047E+00  0.0000E+00   3.4047E+00  0.000E+00  0.000E+00  0.000E+00  1.07942E+03  1.173E+00  4.000E+00  0.000E+00  1.391E+00



 UBDSV3 SAVING "           GW ET" ON UNIT  61 AT TIME STEP  3, STRESS PERIOD   5
 UBDSV3 SAVING "    UZF RECHARGE" ON UNIT  61 AT TIME STEP  3, STRESS PERIOD   5
 UBDSV3 SAVING " SURFACE LEAKAGE" ON UNIT  61 AT TIME STEP  3, STRESS PERIOD   5
 UBDSV3 SAVING "       HORT+DUNN" ON UNIT  61 AT TIME STEP  3, STRESS PERIOD   5
 UBDSV3 SAVING "  STORAGE CHANGE" ON UNIT  61 AT TIME STEP  3, STRESS PERIOD   5


UNSATURATED ZONE PACKAGE VOLUMETRIC BUDGET FOR  TIME STEP     3 STRESS PERIOD    5
  ------------------------------------------------------------------------------



     CUMULATIVE VOLUMES      L**3       RATES FOR THIS TIME STEP      L**3/T
     ------------------                 ------------------------

           IN:                                      IN:
           ---                                      ---
        INFILTRATION =    36464543.6824          INFILTRATION =           7.8123

          OUT:                                     OUT:
          ----                                     ----
              UZF ET =    13117893.2502                UZF ET =          23.0425
        UZF RECHARGE =       73224.0000          UZF RECHARGE =       0.0000E+00

            IN - OUT =    23273426.4321              IN - OUT =         -15.2302

          STORAGE:                                 STORAGE:
          --------                                 --------
      STORAGE CHANGE =    23273426.1221        STORAGE CHANGE =         -15.2302

 PERCENT DISCREPANCY IS DIFFERENCE BETWEEN IN-OUT MINUS CHANGE IN STORAGE
 DIVIDED BY THE AVERAGE OF IN AND OUT TIMES 100

 PERCENT DISCREPANCY =           0.00     PERCENT DISCREPANCY =           0.00






 

            AG WELLS      PERIOD    5   STEP   3
 AG WELL      1   LAYER   1   ROW     6   COL     4   RATE     0.00000    
 AG WELL      2   LAYER   1   ROW     6   COL     5   RATE     0.00000    
 AG WELL      3   LAYER   1   ROW     7   COL     4   RATE     0.00000    
 AG WELL      4   LAYER   1   ROW     7   COL     5   RATE     0.00000    
 AG WELL      5   LAYER   1   ROW     8   COL     4   RATE     0.00000    
 AG WELL      6   LAYER   1   ROW     8   COL     5   RATE     0.00000    
 
 

   DIVERSION SEGMENTS     PERIOD    5   STEP   3
 SEGMENT      9   RATE     3.40474    
 
 

        SW IRRIGATION     PERIOD    5   STEP   3
 SEGMENT      9   ROW     6   COL     4   RATE    0.567468    
 SEGMENT      9   ROW     6   COL     5   RATE    0.567468    
 SEGMENT      9   ROW     7   COL     4   RATE    0.567468    
 SEGMENT      9   ROW     7   COL     5   RATE    0.567468    
 SEGMENT      9   ROW     8   COL     4   RATE    0.567468    
 SEGMENT      9   ROW     8   COL     5   RATE    0.567468    
 
 

        GW IRRIGATION     PERIOD    5   STEP   3
 AG WELL      1   ROW     6   COL     4   RATE     0.00000    
 AG WELL      2   ROW     6   COL     5   RATE     0.00000    
 AG WELL      3   ROW     7   COL     4   RATE     0.00000    
 AG WELL      4   ROW     7   COL     5   RATE     0.00000    
 AG WELL      5   ROW     8   COL     4   RATE     0.00000    
 AG WELL      6   ROW     8   COL     5   RATE     0.00000    
 
1
  VOLUMETRIC BUDGET FOR AGRICULTURAL FIELDS AT TIME STEP    3, STRESS PERIOD   5
  ------------------------------------------------------------------------------

     CUMULATIVE VOLUMES      L**3       RATES FOR THIS TIME STEP      L**3/T
     ------------------                 ------------------------

           IN:                                      IN:
           ---                                      ---
               AG WELLS  =           0.0000                 AG WELLS  =           0.0000
      DIVERSION SEGMENTS =      456964.4062        DIVERSION SEGMENTS =           3.4047
           GW IRRIGATION =           0.0000             GW IRRIGATION =           0.0000
           SW IRRIGATION =           0.0000             SW IRRIGATION =           0.0000
        SYSTEM LOSSES GW =           0.0000          SYSTEM LOSSES GW =           0.0000
        SYSTEM LOSSES SW =           0.0000          SYSTEM LOSSES SW =           0.0000

                TOTAL IN =      456964.4062                  TOTAL IN =           3.4047

          OUT:                                     OUT:
          ----                                     ----
               AG WELLS  =           0.0000                 AG WELLS  =           0.0000
      DIVERSION SEGMENTS =           0.0000        DIVERSION SEGMENTS =           0.0000
           GW IRRIGATION =           0.0000             GW IRRIGATION =           0.0000
           SW IRRIGATION =      456973.5312             SW IRRIGATION =           3.4048
        SYSTEM LOSSES GW =           0.0000          SYSTEM LOSSES GW =           0.0000
        SYSTEM LOSSES SW =           0.0000          SYSTEM LOSSES SW =           0.0000

               TOTAL OUT =      456973.5312                 TOTAL OUT =           3.4048

                IN - OUT =          -9.1250                  IN - OUT =      -6.7949E-05

     PERCENT DISCREPANCY =          -0.00         PERCENT DISCREPANCY =          -0.00



1
  VOLUMETRIC BUDGET FOR ENTIRE MODEL AT END OF TIME STEP    3, STRESS PERIOD   5
  ------------------------------------------------------------------------------

     CUMULATIVE VOLUMES      L**3       RATES FOR THIS TIME STEP      L**3/T
     ------------------                 ------------------------

           IN:                                      IN:
           ---                                      ---
             STORAGE     =     5071782.0000               STORAGE     =           2.6984
       CONSTANT HEAD     =           0.0000         CONSTANT HEAD     =           0.0000
     HEAD DEP BOUNDS     =     2353877.7500       HEAD DEP BOUNDS     =           0.2857
      STREAM LEAKAGE     =    98877296.0000        STREAM LEAKAGE     =          11.3269
        UZF RECHARGE     =       73223.9531          UZF RECHARGE     =           0.0000
               GW ET     =           0.0000                 GW ET     =           0.0000
     SURFACE LEAKAGE     =           0.0000       SURFACE LEAKAGE     =           0.0000
           AG WELLS      =           0.0000             AG WELLS      =           0.0000

                TOTAL IN =   106376184.0000                  TOTAL IN =          14.3110

          OUT:                                     OUT:
          ----                                     ----
             STORAGE     =    18366338.0000               STORAGE     =           1.2299
       CONSTANT HEAD     =           0.0000         CONSTANT HEAD     =           0.0000
     HEAD DEP BOUNDS     =     2394000.2500       HEAD DEP BOUNDS     =           0.2941
      STREAM LEAKAGE     =    85619480.0000        STREAM LEAKAGE     =          12.7856
        UZF RECHARGE     =           0.0000          UZF RECHARGE     =           0.0000
               GW ET     =          51.9965                 GW ET     =       5.9312E-04
     SURFACE LEAKAGE     =           0.0000       SURFACE LEAKAGE     =           0.0000
           AG WELLS      =           0.0000             AG WELLS      =           0.0000

               TOTAL OUT =   106379864.0000                 TOTAL OUT =          14.3101

                IN - OUT =       -3680.0000                  IN - OUT =       9.1076E-04

     PERCENT DISCREPANCY =          -0.00         PERCENT DISCREPANCY =           0.01






         TIME SUMMARY AT END OF TIME STEP    3 IN STRESS PERIOD    5
                    SECONDS     MINUTES      HOURS       DAYS        YEARS
                    -----------------------------------------------------------
   TIME STEP LENGTH  87667.      1461.1      24.352      1.0147     2.77799E-03
 STRESS PERIOD TIME 2.63000E+05  4383.3      73.056      3.0440     8.33397E-03
         TOTAL TIME 8.23939E+06 1.37323E+05  2288.7      95.363     0.26109    
1
 
 SOLVING FOR HEAD 
                                                   Max.-Head-Change                         Max.-Flux-Residual
  Residual-Control   Outer-Iter.   Inner-Iter.     Column Row Layer    Maximum-Head-Change  Column Row Layer    Maximum-Flux-Residual          L2-NORM 
          0                 1           2             4   13     1      -0.9349446344E-02       4   13    1        -0.5459108824E+00      0.1001995865E+01
          0                 2           2             3   13     1       0.3219658641E-03       3   13    1         0.1917383502E-01      0.4017504048E-01
          0                 3           2             4   13     1      -0.3238497936E-03       4   13    1        -0.1996628278E-01      0.3872941305E-01
          0                 4           2             4   13     1      -0.1385095015E-03       4   13    1        -0.8539170379E-02      0.1505118555E-01
          0                 5           1             4   13     1      -0.7007201878E-04       4   13    1        -0.4319642174E-02      0.7686495687E-02

    ------------------------------------------------
       NWT REQUIRED            5 OUTER ITERATIONS 
       AND A TOTAL OF          9 INNER ITERATIONS.
    ------------------------------------------------

 OUTPUT CONTROL FOR STRESS PERIOD    5   TIME STEP    4
    PRINT BUDGET
    SAVE BUDGET
 UBDSV1 SAVING "         STORAGE" ON UNIT 102 AT TIME STEP  4, STRESS PERIOD   5
 UBDSV2 SAVING "   CONSTANT HEAD" ON UNIT 102 AT TIME STEP  4, STRESS PERIOD   5
 UBDSV1 SAVING "FLOW RIGHT FACE " ON UNIT 102 AT TIME STEP  4, STRESS PERIOD   5
 UBDSV1 SAVING "FLOW FRONT FACE " ON UNIT 102 AT TIME STEP  4, STRESS PERIOD   5

  HEAD DEP BOUNDS   PERIOD    5   STEP     4
 BOUNDARY      1   LAYER   1   ROW    13   COL     1   RATE   -0.293853    
 BOUNDARY      2   LAYER   1   ROW    14   COL     9   RATE    0.285739    



 STREAM LISTING     PERIOD      5   STEP        4

 LAYER ROW COL. STREAM  RCH.  FLOW INTO     FLOW TO   FLOW OUT OF   OVRLND.     DIRECT     STREAM       STREAM     STREAM     STREAM   STREAMBED  STREAMBED
                SEG.NO.  NO.  STRM. RCH.    AQUIFER    STRM. RCH.    RUNOFF     PRECIP       ET          HEAD       DEPTH      WIDTH   CONDCTNC.   GRADIENT

   1    1    1     1     1    2.1000E+01  2.2591E-01   2.0774E+01  0.000E+00  0.000E+00  0.000E+00  1.09416E+03  1.115E+00  1.220E+01  5.490E-02  1.372E+00
   1    2    2     1     2    2.0774E+01  3.4916E-01   2.0425E+01  0.000E+00  0.000E+00  0.000E+00  1.08917E+03  1.110E+00  1.214E+01  8.495E-02  1.370E+00
   1    3    3     1     3    2.0425E+01  2.9709E-01   2.0128E+01  0.000E+00  0.000E+00  0.000E+00  1.08352E+03  1.105E+00  1.206E+01  7.238E-02  1.368E+00
   1    3    4     1     4    2.0128E+01  2.7299E-01   1.9855E+01  0.000E+00  0.000E+00  0.000E+00  1.07851E+03  1.100E+00  1.200E+01  6.659E-02  1.367E+00
   1    4    5     2     1    1.7855E+01  3.1056E-01   1.7544E+01  0.000E+00  0.000E+00  0.000E+00  1.07292E+03  9.816E-01  1.200E+01  7.800E-02  1.327E+00
   1    5    6     2     2    1.7544E+01  2.3834E-01   1.7306E+01  0.000E+00  0.000E+00  0.000E+00  1.06748E+03  9.724E-01  1.200E+01  6.000E-02  1.324E+00
   1    6    6     2     3    1.7306E+01  2.3786E-01   1.7068E+01  0.000E+00  0.000E+00  0.000E+00  1.06276E+03  9.644E-01  1.200E+01  6.000E-02  1.321E+00
   1    7    6     2     4    1.7068E+01  2.3738E-01   1.6831E+01  0.000E+00  0.000E+00  0.000E+00  1.05803E+03  9.564E-01  1.200E+01  6.000E-02  1.319E+00
   1    8    6     2     5    1.6831E+01  2.3690E-01   1.6594E+01  0.000E+00  0.000E+00  0.000E+00  1.05331E+03  9.483E-01  1.200E+01  6.000E-02  1.316E+00
   1    3    5     3     1    2.0000E+00  2.8252E-01   1.7175E+00  0.000E+00  0.000E+00  0.000E+00  1.07555E+03  1.909E+00  9.636E+00  7.227E-02  1.955E+00
   1    3    6     3     2    1.7175E+00  2.4905E-01   1.4684E+00  0.000E+00  0.000E+00  0.000E+00  1.07264E+03  1.727E+00  8.909E+00  6.682E-02  1.864E+00
   1    3    7     3     3    1.4684E+00  1.9718E-01   1.2712E+00  0.000E+00  0.000E+00  0.000E+00  1.06987E+03  1.555E+00  8.218E+00  5.547E-02  1.777E+00
   1    4    8     3     4    1.2712E+00  2.2567E-01   1.0456E+00  0.000E+00  0.000E+00  0.000E+00  1.06682E+03  1.364E+00  7.455E+00  6.709E-02  1.682E+00
   1    5    8     3     5    1.0456E+00  1.5790E-01   8.8768E-01  0.000E+00  0.000E+00  0.000E+00  1.06362E+03  1.164E+00  6.655E+00  4.991E-02  1.582E+00
   1    6    8     3     6    8.8768E-01  5.5980E-02   8.3170E-01  0.000E+00  0.000E+00  0.000E+00  1.06158E+03  1.036E+00  6.145E+00  1.844E-02  1.518E+00
   1    5   10     4     1    1.0000E+01  9.0919E-02   9.9091E+00  0.000E+00  0.000E+00  0.000E+00  1.07836E+03  6.368E-01  1.000E+01  2.500E-02  1.212E+00
   1    5    9     4     2    9.9091E+00  1.8158E-01   9.7275E+00  0.000E+00  0.000E+00  0.000E+00  1.07154E+03  6.315E-01  1.000E+01  5.000E-02  1.211E+00
   1    6    8     4     3    9.7275E+00  1.2689E-01   9.6006E+00  0.000E+00  0.000E+00  0.000E+00  1.06381E+03  6.256E-01  1.000E+01  3.500E-02  1.209E+00
   1    6    8     5     1    1.0432E+01  2.2686E-01   1.0205E+01  0.000E+00  0.000E+00  0.000E+00  1.05868E+03  6.790E-01  1.542E+01  6.166E-02  1.226E+00
   1    7    7     5     2    1.0205E+01  2.7894E-01   9.9265E+00  0.000E+00  0.000E+00  0.000E+00  1.05417E+03  6.732E-01  1.519E+01  7.594E-02  1.224E+00
   1    8    7     5     3    9.9265E+00  1.9221E-01   9.7343E+00  0.000E+00  0.000E+00  0.000E+00  1.04992E+03  6.676E-01  1.497E+01  5.241E-02  1.223E+00
   1    8    6     5     4    9.7343E+00  1.3577E-01   9.5985E+00  0.000E+00  0.000E+00  0.000E+00  1.04691E+03  6.637E-01  1.482E+01  3.706E-02  1.221E+00
   1    9    6     6     1    2.2739E+01  2.4918E-01   2.2490E+01  0.000E+00  0.000E+00  0.000E+00  1.04388E+03  1.153E+00  1.200E+01  6.000E-02  1.384E+00
   1   10    7     6     2    2.2490E+01  2.4872E-01   2.2241E+01  0.000E+00  0.000E+00  0.000E+00  1.03933E+03  1.145E+00  1.200E+01  6.000E-02  1.382E+00
   1   11    7     6     3    2.2241E+01  2.4826E-01   2.1993E+01  0.000E+00  0.000E+00  0.000E+00  1.03477E+03  1.138E+00  1.200E+01  6.000E-02  1.379E+00
   1   12    7     6     4    2.1993E+01  2.4781E-01   2.1745E+01  0.000E+00  0.000E+00  0.000E+00  1.03022E+03  1.130E+00  1.200E+01  6.000E-02  1.377E+00
   1   13    7     6     5    2.1745E+01 -2.3316E-02   2.1768E+01  0.000E+00  0.000E+00  0.000E+00  1.02704E+03  1.127E+00  1.200E+01  2.400E-01 -3.238E-02
   1   14    9     7     1    1.5000E+02  1.3355E+00   1.4866E+02  0.000E+00  0.000E+00  0.000E+00  1.03987E+03  2.288E+00  5.529E+01  5.593E-01  7.959E-01
   1   13    8     7     2    1.4866E+02  1.8264E+00   1.4684E+02  0.000E+00  0.000E+00  0.000E+00  1.03478E+03  2.279E+00  5.526E+01  6.148E-01  9.903E-01
   1   13    7     7     3    1.4684E+02  1.4280E+00   1.4541E+02  0.000E+00  0.000E+00  0.000E+00  1.02969E+03  2.271E+00  5.522E+01  5.585E-01  8.524E-01
   1   13    6     8     1    1.6718E+02  8.4268E-01   1.6634E+02  0.000E+00  0.000E+00  0.000E+00  1.02481E+03  2.932E+00  4.251E+01  4.332E-01  6.484E-01
   1   13    5     8     2    1.6634E+02  9.3395E-02   1.6624E+02  0.000E+00  0.000E+00  0.000E+00  1.01855E+03  2.929E+00  4.246E+01  4.327E-01  7.194E-02
   1   13    4     8     3    1.6624E+02 -3.0708E+00   1.6931E+02  0.000E+00  0.000E+00  0.000E+00  1.01231E+03  2.938E+00  4.261E+01  4.342E+00 -2.358E-01
   1   13    3     8     4    1.6931E+02 -4.1770E+00   1.7349E+02  0.000E+00  0.000E+00  0.000E+00  1.00609E+03  2.962E+00  4.295E+01  4.377E+00 -3.181E-01
   1   13    2     8     5    1.7349E+02 -3.1047E+00   1.7659E+02  0.000E+00  0.000E+00  0.000E+00  9.99860E+02  2.985E+00  4.329E+01  4.411E+00 -2.346E-01
   1   13    1     8     6    1.7659E+02 -2.2771E+00   1.7887E+02  0.000E+00  0.000E+00  0.000E+00  9.94878E+02  3.003E+00  4.354E+01  2.662E+00 -2.851E-01
   1    8    6     9     1    3.4536E+00  0.0000E+00   3.4536E+00  0.000E+00  0.000E+00  0.000E+00  1.07993E+03  1.175E+00  4.000E+00  0.000E+00  1.392E+00
   1    8    5     9     2    3.4536E+00  0.0000E+00   3.4536E+00  0.000E+00  0.000E+00  0.000E+00  1.07943E+03  1.175E+00  4.000E+00  0.000E+00  1.392E+00



 UBDSV3 SAVING "           GW ET" ON UNIT  61 AT TIME STEP  4, STRESS PERIOD   5
 UBDSV3 SAVING "    UZF RECHARGE" ON UNIT  61 AT TIME STEP  4, STRESS PERIOD   5
 UBDSV3 SAVING " SURFACE LEAKAGE" ON UNIT  61 AT TIME STEP  4, STRESS PERIOD   5
 UBDSV3 SAVING "       HORT+DUNN" ON UNIT  61 AT TIME STEP  4, STRESS PERIOD   5
 UBDSV3 SAVING "  STORAGE CHANGE" ON UNIT  61 AT TIME STEP  4, STRESS PERIOD   5


UNSATURATED ZONE PACKAGE VOLUMETRIC BUDGET FOR  TIME STEP     4 STRESS PERIOD    5
  ------------------------------------------------------------------------------



     CUMULATIVE VOLUMES      L**3       RATES FOR THIS TIME STEP      L**3/T
     ------------------                 ------------------------

           IN:                                      IN:
           ---                                      ---
        INFILTRATION =    37153702.4666          INFILTRATION =           7.8611

          OUT:                                     OUT:
          ----                                     ----
              UZF ET =    14538500.5793                UZF ET =          16.2046
        UZF RECHARGE =       73224.0000          UZF RECHARGE =       0.0000E+00

            IN - OUT =    22541977.8872              IN - OUT =          -8.3435

          STORAGE:                                 STORAGE:
          --------                                 --------
      STORAGE CHANGE =    22541977.5713        STORAGE CHANGE =          -8.3435

 PERCENT DISCREPANCY IS DIFFERENCE BETWEEN IN-OUT MINUS CHANGE IN STORAGE
 DIVIDED BY THE AVERAGE OF IN AND OUT TIMES 100

 PERCENT DISCREPANCY =           0.00     PERCENT DISCREPANCY =           0.00






 

            AG WELLS      PERIOD    5   STEP   4
 AG WELL      1   LAYER   1   ROW     6   COL     4   RATE     0.00000    
 AG WELL      2   LAYER   1   ROW     6   COL     5   RATE     0.00000    
 AG WELL      3   LAYER   1   ROW     7   COL     4   RATE     0.00000    
 AG WELL      4   LAYER   1   ROW     7   COL     5   RATE     0.00000    
 AG WELL      5   LAYER   1   ROW     8   COL     4   RATE     0.00000    
 AG WELL      6   LAYER   1   ROW     8   COL     5   RATE     0.00000    
 
 

   DIVERSION SEGMENTS     PERIOD    5   STEP   4
 SEGMENT      9   RATE     3.45356    
 
 

        SW IRRIGATION     PERIOD    5   STEP   4
 SEGMENT      9   ROW     6   COL     4   RATE    0.575604    
 SEGMENT      9   ROW     6   COL     5   RATE    0.575604    
 SEGMENT      9   ROW     7   COL     4   RATE    0.575604    
 SEGMENT      9   ROW     7   COL     5   RATE    0.575604    
 SEGMENT      9   ROW     8   COL     4   RATE    0.575604    
 SEGMENT      9   ROW     8   COL     5   RATE    0.575604    
 
 

        GW IRRIGATION     PERIOD    5   STEP   4
 AG WELL      1   ROW     6   COL     4   RATE     0.00000    
 AG WELL      2   ROW     6   COL     5   RATE     0.00000    
 AG WELL      3   ROW     7   COL     4   RATE     0.00000    
 AG WELL      4   ROW     7   COL     5   RATE     0.00000    
 AG WELL      5   ROW     8   COL     4   RATE     0.00000    
 AG WELL      6   ROW     8   COL     5   RATE     0.00000    
 
1
  VOLUMETRIC BUDGET FOR AGRICULTURAL FIELDS AT TIME STEP    4, STRESS PERIOD   5
  ------------------------------------------------------------------------------

     CUMULATIVE VOLUMES      L**3       RATES FOR THIS TIME STEP      L**3/T
     ------------------                 ------------------------

           IN:                                      IN:
           ---                                      ---
               AG WELLS  =           0.0000                 AG WELLS  =           0.0000
      DIVERSION SEGMENTS =      759726.3125        DIVERSION SEGMENTS =           3.4536
           GW IRRIGATION =           0.0000             GW IRRIGATION =           0.0000
           SW IRRIGATION =           0.0000             SW IRRIGATION =           0.0000
        SYSTEM LOSSES GW =           0.0000          SYSTEM LOSSES GW =           0.0000
        SYSTEM LOSSES SW =           0.0000          SYSTEM LOSSES SW =           0.0000

                TOTAL IN =      759726.3125                  TOTAL IN =           3.4536

          OUT:                                     OUT:
          ----                                     ----
               AG WELLS  =           0.0000                 AG WELLS  =           0.0000
      DIVERSION SEGMENTS =           0.0000        DIVERSION SEGMENTS =           0.0000
           GW IRRIGATION =           0.0000             GW IRRIGATION =           0.0000
           SW IRRIGATION =      759741.5000             SW IRRIGATION =           3.4536
        SYSTEM LOSSES GW =           0.0000          SYSTEM LOSSES GW =           0.0000
        SYSTEM LOSSES SW =           0.0000          SYSTEM LOSSES SW =           0.0000

               TOTAL OUT =      759741.5000                 TOTAL OUT =           3.4536

                IN - OUT =         -15.1875                  IN - OUT =      -6.8903E-05

     PERCENT DISCREPANCY =          -0.00         PERCENT DISCREPANCY =          -0.00



1
  VOLUMETRIC BUDGET FOR ENTIRE MODEL AT END OF TIME STEP    4, STRESS PERIOD   5
  ------------------------------------------------------------------------------

     CUMULATIVE VOLUMES      L**3       RATES FOR THIS TIME STEP      L**3/T
     ------------------                 ------------------------

           IN:                                      IN:
           ---                                      ---
             STORAGE     =     5299945.5000               STORAGE     =           2.6026
       CONSTANT HEAD     =           0.0000         CONSTANT HEAD     =           0.0000
     HEAD DEP BOUNDS     =     2378927.5000       HEAD DEP BOUNDS     =           0.2857
      STREAM LEAKAGE     =    99870360.0000        STREAM LEAKAGE     =          11.3277
        UZF RECHARGE     =       73223.9531          UZF RECHARGE     =           0.0000
               GW ET     =           0.0000                 GW ET     =           0.0000
     SURFACE LEAKAGE     =           0.0000       SURFACE LEAKAGE     =           0.0000
           AG WELLS      =           0.0000             AG WELLS      =           0.0000

                TOTAL IN =   107622456.0000                  TOTAL IN =          14.2161

          OUT:                                     OUT:
          ----                                     ----
             STORAGE     =    18471324.0000               STORAGE     =           1.1976
       CONSTANT HEAD     =           0.0000         CONSTANT HEAD     =           0.0000
     HEAD DEP BOUNDS     =     2419761.5000       HEAD DEP BOUNDS     =           0.2939
      STREAM LEAKAGE     =    86728720.0000        STREAM LEAKAGE     =          12.6529
        UZF RECHARGE     =           0.0000          UZF RECHARGE     =           0.0000
               GW ET     =        6258.3105                 GW ET     =       7.0794E-02
     SURFACE LEAKAGE     =           0.0000       SURFACE LEAKAGE     =           0.0000
           AG WELLS      =           0.0000             AG WELLS      =           0.0000

               TOTAL OUT =   107626064.0000                 TOTAL OUT =          14.2151

                IN - OUT =       -3608.0000                  IN - OUT =       9.7084E-04

     PERCENT DISCREPANCY =          -0.00         PERCENT DISCREPANCY =           0.01






         TIME SUMMARY AT END OF TIME STEP    4 IN STRESS PERIOD    5
                    SECONDS     MINUTES      HOURS       DAYS        YEARS
                    -----------------------------------------------------------
   TIME STEP LENGTH  87667.      1461.1      24.352      1.0147     2.77799E-03
 STRESS PERIOD TIME 3.50667E+05  5844.4      97.407      4.0586     1.11120E-02
         TOTAL TIME 8.32706E+06 1.38784E+05  2313.1      96.378     0.26387    
1
 
 SOLVING FOR HEAD 
                                                   Max.-Head-Change                         Max.-Flux-Residual
  Residual-Control   Outer-Iter.   Inner-Iter.     Column Row Layer    Maximum-Head-Change  Column Row Layer    Maximum-Flux-Residual          L2-NORM 
          0                 1           2             2   13     1      -0.8451646203E-02       4   13    1        -0.4781896564E+00      0.9082696943E+00
          0                 2           2             3   13     1       0.2223886013E-03       3   13    1         0.1327074897E-01      0.3315945405E-01
          0                 3           2             4   13     1      -0.3173096520E-03       4   13    1        -0.1956088094E-01      0.3828205587E-01
          0                 4           2             4   13     1      -0.1402337215E-03       4   13    1        -0.8645576356E-02      0.1522421149E-01
          0                 5           1             4   13     1      -0.7093641718E-04       4   13    1        -0.4372919530E-02      0.7777867840E-02

    ------------------------------------------------
       NWT REQUIRED            5 OUTER ITERATIONS 
       AND A TOTAL OF          9 INNER ITERATIONS.
    ------------------------------------------------

 NO OUTPUT CONTROL FOR STRESS PERIOD    5   TIME STEP    5
 
 SOLVING FOR HEAD 
                                                   Max.-Head-Change                         Max.-Flux-Residual
  Residual-Control   Outer-Iter.   Inner-Iter.     Column Row Layer    Maximum-Head-Change  Column Row Layer    Maximum-Flux-Residual          L2-NORM 
          0                 1           2             2   13     1      -0.7738381875E-02       2   13    1        -0.4352050151E+00      0.8245277794E+00
          0                 2           2             3    2     1      -0.2186683171E-03       3    2    1        -0.1171781024E-01      0.2858906302E-01
          0                 3           2             4   13     1      -0.3087045557E-03       4   13    1        -0.1902856807E-01      0.3757883737E-01
          0                 4           2             4   13     1      -0.1402771501E-03       4   13    1        -0.8648377394E-02      0.1521859259E-01
          0                 5           1             4   13     1      -0.7086769813E-04       4   13    1        -0.4368681321E-02      0.7768767248E-02

    ------------------------------------------------
       NWT REQUIRED            5 OUTER ITERATIONS 
       AND A TOTAL OF          9 INNER ITERATIONS.
    ------------------------------------------------

 OUTPUT CONTROL FOR STRESS PERIOD    5   TIME STEP    6
    PRINT BUDGET
    SAVE BUDGET
 UBDSV1 SAVING "         STORAGE" ON UNIT 102 AT TIME STEP  6, STRESS PERIOD   5
 UBDSV2 SAVING "   CONSTANT HEAD" ON UNIT 102 AT TIME STEP  6, STRESS PERIOD   5
 UBDSV1 SAVING "FLOW RIGHT FACE " ON UNIT 102 AT TIME STEP  6, STRESS PERIOD   5
 UBDSV1 SAVING "FLOW FRONT FACE " ON UNIT 102 AT TIME STEP  6, STRESS PERIOD   5

  HEAD DEP BOUNDS   PERIOD    5   STEP     6
 BOUNDARY      1   LAYER   1   ROW    13   COL     1   RATE   -0.293464    
 BOUNDARY      2   LAYER   1   ROW    14   COL     9   RATE    0.285740    



 STREAM LISTING     PERIOD      5   STEP        6

 LAYER ROW COL. STREAM  RCH.  FLOW INTO     FLOW TO   FLOW OUT OF   OVRLND.     DIRECT     STREAM       STREAM     STREAM     STREAM   STREAMBED  STREAMBED
                SEG.NO.  NO.  STRM. RCH.    AQUIFER    STRM. RCH.    RUNOFF     PRECIP       ET          HEAD       DEPTH      WIDTH   CONDCTNC.   GRADIENT

   1    1    1     1     1    2.1000E+01  2.2592E-01   2.0774E+01  0.000E+00  0.000E+00  0.000E+00  1.09416E+03  1.115E+00  1.220E+01  5.490E-02  1.372E+00
   1    2    2     1     2    2.0774E+01  3.4916E-01   2.0425E+01  0.000E+00  0.000E+00  0.000E+00  1.08917E+03  1.110E+00  1.214E+01  8.495E-02  1.370E+00
   1    3    3     1     3    2.0425E+01  2.9709E-01   2.0128E+01  0.000E+00  0.000E+00  0.000E+00  1.08352E+03  1.105E+00  1.206E+01  7.238E-02  1.368E+00
   1    3    4     1     4    2.0128E+01  2.7299E-01   1.9855E+01  0.000E+00  0.000E+00  0.000E+00  1.07851E+03  1.100E+00  1.200E+01  6.659E-02  1.367E+00
   1    4    5     2     1    1.7855E+01  3.1056E-01   1.7544E+01  0.000E+00  0.000E+00  0.000E+00  1.07292E+03  9.816E-01  1.200E+01  7.800E-02  1.327E+00
   1    5    6     2     2    1.7544E+01  2.3834E-01   1.7306E+01  0.000E+00  0.000E+00  0.000E+00  1.06748E+03  9.724E-01  1.200E+01  6.000E-02  1.324E+00
   1    6    6     2     3    1.7306E+01  2.3787E-01   1.7068E+01  0.000E+00  0.000E+00  0.000E+00  1.06276E+03  9.644E-01  1.200E+01  6.000E-02  1.321E+00
   1    7    6     2     4    1.7068E+01  2.3738E-01   1.6831E+01  0.000E+00  0.000E+00  0.000E+00  1.05803E+03  9.564E-01  1.200E+01  6.000E-02  1.319E+00
   1    8    6     2     5    1.6831E+01  2.3690E-01   1.6594E+01  0.000E+00  0.000E+00  0.000E+00  1.05331E+03  9.483E-01  1.200E+01  6.000E-02  1.316E+00
   1    3    5     3     1    2.0000E+00  2.8252E-01   1.7175E+00  0.000E+00  0.000E+00  0.000E+00  1.07555E+03  1.909E+00  9.636E+00  7.227E-02  1.955E+00
   1    3    6     3     2    1.7175E+00  2.4905E-01   1.4684E+00  0.000E+00  0.000E+00  0.000E+00  1.07264E+03  1.727E+00  8.909E+00  6.682E-02  1.864E+00
   1    3    7     3     3    1.4684E+00  1.9718E-01   1.2712E+00  0.000E+00  0.000E+00  0.000E+00  1.06987E+03  1.555E+00  8.218E+00  5.547E-02  1.777E+00
   1    4    8     3     4    1.2712E+00  2.2567E-01   1.0456E+00  0.000E+00  0.000E+00  0.000E+00  1.06682E+03  1.364E+00  7.455E+00  6.709E-02  1.682E+00
   1    5    8     3     5    1.0456E+00  1.5790E-01   8.8768E-01  0.000E+00  0.000E+00  0.000E+00  1.06362E+03  1.164E+00  6.655E+00  4.991E-02  1.582E+00
   1    6    8     3     6    8.8768E-01  5.5980E-02   8.3170E-01  0.000E+00  0.000E+00  0.000E+00  1.06158E+03  1.036E+00  6.145E+00  1.844E-02  1.518E+00
   1    5   10     4     1    1.0000E+01  9.0919E-02   9.9091E+00  0.000E+00  0.000E+00  0.000E+00  1.07836E+03  6.368E-01  1.000E+01  2.500E-02  1.212E+00
   1    5    9     4     2    9.9091E+00  1.8158E-01   9.7275E+00  0.000E+00  0.000E+00  0.000E+00  1.07154E+03  6.315E-01  1.000E+01  5.000E-02  1.211E+00
   1    6    8     4     3    9.7275E+00  1.2689E-01   9.6006E+00  0.000E+00  0.000E+00  0.000E+00  1.06381E+03  6.256E-01  1.000E+01  3.500E-02  1.209E+00
   1    6    8     5     1    1.0432E+01  2.2686E-01   1.0205E+01  0.000E+00  0.000E+00  0.000E+00  1.05868E+03  6.790E-01  1.542E+01  6.166E-02  1.226E+00
   1    7    7     5     2    1.0205E+01  2.7894E-01   9.9265E+00  0.000E+00  0.000E+00  0.000E+00  1.05417E+03  6.732E-01  1.519E+01  7.594E-02  1.224E+00
   1    8    7     5     3    9.9265E+00  1.9221E-01   9.7343E+00  0.000E+00  0.000E+00  0.000E+00  1.04992E+03  6.676E-01  1.497E+01  5.241E-02  1.223E+00
   1    8    6     5     4    9.7343E+00  1.3577E-01   9.5985E+00  0.000E+00  0.000E+00  0.000E+00  1.04691E+03  6.637E-01  1.482E+01  3.706E-02  1.221E+00
   1    9    6     6     1    2.2729E+01  2.4916E-01   2.2480E+01  0.000E+00  0.000E+00  0.000E+00  1.04388E+03  1.153E+00  1.200E+01  6.000E-02  1.384E+00
   1   10    7     6     2    2.2480E+01  2.4870E-01   2.2231E+01  0.000E+00  0.000E+00  0.000E+00  1.03933E+03  1.145E+00  1.200E+01  6.000E-02  1.382E+00
   1   11    7     6     3    2.2231E+01  2.4825E-01   2.1983E+01  0.000E+00  0.000E+00  0.000E+00  1.03477E+03  1.137E+00  1.200E+01  6.000E-02  1.379E+00
   1   12    7     6     4    2.1983E+01  2.4779E-01   2.1735E+01  0.000E+00  0.000E+00  0.000E+00  1.03022E+03  1.130E+00  1.200E+01  6.000E-02  1.377E+00
   1   13    7     6     5    2.1735E+01 -2.3360E-02   2.1758E+01  0.000E+00  0.000E+00  0.000E+00  1.02704E+03  1.126E+00  1.200E+01  2.400E-01 -3.244E-02
   1   14    9     7     1    1.5000E+02  1.3355E+00   1.4866E+02  0.000E+00  0.000E+00  0.000E+00  1.03987E+03  2.288E+00  5.529E+01  5.593E-01  7.960E-01
   1   13    8     7     2    1.4866E+02  1.8262E+00   1.4684E+02  0.000E+00  0.000E+00  0.000E+00  1.03478E+03  2.279E+00  5.526E+01  6.148E-01  9.902E-01
   1   13    7     7     3    1.4684E+02  1.4281E+00   1.4541E+02  0.000E+00  0.000E+00  0.000E+00  1.02969E+03  2.271E+00  5.522E+01  5.585E-01  8.524E-01
   1   13    6     8     1    1.6717E+02  8.4379E-01   1.6632E+02  0.000E+00  0.000E+00  0.000E+00  1.02481E+03  2.932E+00  4.251E+01  4.332E-01  6.493E-01
   1   13    5     8     2    1.6632E+02  9.4302E-02   1.6623E+02  0.000E+00  0.000E+00  0.000E+00  1.01855E+03  2.928E+00  4.246E+01  4.327E-01  7.264E-02
   1   13    4     8     3    1.6623E+02 -3.0015E+00   1.6923E+02  0.000E+00  0.000E+00  0.000E+00  1.01231E+03  2.938E+00  4.260E+01  4.341E+00 -2.305E-01
   1   13    3     8     4    1.6923E+02 -4.1088E+00   1.7334E+02  0.000E+00  0.000E+00  0.000E+00  1.00609E+03  2.961E+00  4.294E+01  4.376E+00 -3.130E-01
   1   13    2     8     5    1.7334E+02 -3.0338E+00   1.7637E+02  0.000E+00  0.000E+00  0.000E+00  9.99859E+02  2.984E+00  4.327E+01  4.410E+00 -2.293E-01
   1   13    1     8     6    1.7637E+02 -2.2527E+00   1.7863E+02  0.000E+00  0.000E+00  0.000E+00  9.94876E+02  3.001E+00  4.352E+01  2.661E+00 -2.822E-01
   1    8    6     9     1    3.4635E+00  0.0000E+00   3.4635E+00  0.000E+00  0.000E+00  0.000E+00  1.07993E+03  1.177E+00  4.000E+00  0.000E+00  1.392E+00
   1    8    5     9     2    3.4635E+00  0.0000E+00   3.4635E+00  0.000E+00  0.000E+00  0.000E+00  1.07943E+03  1.177E+00  4.000E+00  0.000E+00  1.392E+00



 UBDSV3 SAVING "           GW ET" ON UNIT  61 AT TIME STEP  6, STRESS PERIOD   5
 UBDSV3 SAVING "    UZF RECHARGE" ON UNIT  61 AT TIME STEP  6, STRESS PERIOD   5
 UBDSV3 SAVING " SURFACE LEAKAGE" ON UNIT  61 AT TIME STEP  6, STRESS PERIOD   5
 UBDSV3 SAVING "       HORT+DUNN" ON UNIT  61 AT TIME STEP  6, STRESS PERIOD   5
 UBDSV3 SAVING "  STORAGE CHANGE" ON UNIT  61 AT TIME STEP  6, STRESS PERIOD   5


UNSATURATED ZONE PACKAGE VOLUMETRIC BUDGET FOR  TIME STEP     6 STRESS PERIOD    5
  ------------------------------------------------------------------------------



     CUMULATIVE VOLUMES      L**3       RATES FOR THIS TIME STEP      L**3/T
     ------------------                 ------------------------

           IN:                                      IN:
           ---                                      ---
        INFILTRATION =    38534218.2146          INFILTRATION =           7.8711

          OUT:                                     OUT:
          ----                                     ----
              UZF ET =    17376965.3899                UZF ET =          16.1863
        UZF RECHARGE =       73224.0000          UZF RECHARGE =       0.0000E+00

            IN - OUT =    21084028.8247              IN - OUT =          -8.3152

          STORAGE:                                 STORAGE:
          --------                                 --------
      STORAGE CHANGE =    21084028.4963        STORAGE CHANGE =          -8.3152

 PERCENT DISCREPANCY IS DIFFERENCE BETWEEN IN-OUT MINUS CHANGE IN STORAGE
 DIVIDED BY THE AVERAGE OF IN AND OUT TIMES 100

 PERCENT DISCREPANCY =           0.00     PERCENT DISCREPANCY =           0.00






 

            AG WELLS      PERIOD    5   STEP   6
 AG WELL      1   LAYER   1   ROW     6   COL     4   RATE     0.00000    
 AG WELL      2   LAYER   1   ROW     6   COL     5   RATE     0.00000    
 AG WELL      3   LAYER   1   ROW     7   COL     4   RATE     0.00000    
 AG WELL      4   LAYER   1   ROW     7   COL     5   RATE     0.00000    
 AG WELL      5   LAYER   1   ROW     8   COL     4   RATE     0.00000    
 AG WELL      6   LAYER   1   ROW     8   COL     5   RATE     0.00000    
 
 

   DIVERSION SEGMENTS     PERIOD    5   STEP   6
 SEGMENT      9   RATE     3.46350    
 
 

        SW IRRIGATION     PERIOD    5   STEP   6
 SEGMENT      9   ROW     6   COL     4   RATE    0.577262    
 SEGMENT      9   ROW     6   COL     5   RATE    0.577262    
 SEGMENT      9   ROW     7   COL     4   RATE    0.577262    
 SEGMENT      9   ROW     7   COL     5   RATE    0.577262    
 SEGMENT      9   ROW     8   COL     4   RATE    0.577262    
 SEGMENT      9   ROW     8   COL     5   RATE    0.577262    
 
 

        GW IRRIGATION     PERIOD    5   STEP   6
 AG WELL      1   ROW     6   COL     4   RATE     0.00000    
 AG WELL      2   ROW     6   COL     5   RATE     0.00000    
 AG WELL      3   ROW     7   COL     4   RATE     0.00000    
 AG WELL      4   ROW     7   COL     5   RATE     0.00000    
 AG WELL      5   ROW     8   COL     4   RATE     0.00000    
 AG WELL      6   ROW     8   COL     5   RATE     0.00000    
 
1
  VOLUMETRIC BUDGET FOR AGRICULTURAL FIELDS AT TIME STEP    6, STRESS PERIOD   5
  ------------------------------------------------------------------------------

     CUMULATIVE VOLUMES      L**3       RATES FOR THIS TIME STEP      L**3/T
     ------------------                 ------------------------

           IN:                                      IN:
           ---                                      ---
               AG WELLS  =           0.0000                 AG WELLS  =           0.0000
      DIVERSION SEGMENTS =     1367448.2500        DIVERSION SEGMENTS =           3.4635
           GW IRRIGATION =           0.0000             GW IRRIGATION =           0.0000
           SW IRRIGATION =           0.0000             SW IRRIGATION =           0.0000
        SYSTEM LOSSES GW =           0.0000          SYSTEM LOSSES GW =           0.0000
        SYSTEM LOSSES SW =           0.0000          SYSTEM LOSSES SW =           0.0000

                TOTAL IN =     1367448.2500                  TOTAL IN =           3.4635

          OUT:                                     OUT:
          ----                                     ----
               AG WELLS  =           0.0000                 AG WELLS  =           0.0000
      DIVERSION SEGMENTS =           0.0000        DIVERSION SEGMENTS =           0.0000
           GW IRRIGATION =           0.0000             GW IRRIGATION =           0.0000
           SW IRRIGATION =     1367475.6250             SW IRRIGATION =           3.4636
        SYSTEM LOSSES GW =           0.0000          SYSTEM LOSSES GW =           0.0000
        SYSTEM LOSSES SW =           0.0000          SYSTEM LOSSES SW =           0.0000

               TOTAL OUT =     1367475.6250                 TOTAL OUT =           3.4636

                IN - OUT =         -27.3750                  IN - OUT =      -6.8903E-05

     PERCENT DISCREPANCY =          -0.00         PERCENT DISCREPANCY =          -0.00



1
  VOLUMETRIC BUDGET FOR ENTIRE MODEL AT END OF TIME STEP    6, STRESS PERIOD   5
  ------------------------------------------------------------------------------

     CUMULATIVE VOLUMES      L**3       RATES FOR THIS TIME STEP      L**3/T
     ------------------                 ------------------------

           IN:                                      IN:
           ---                                      ---
             STORAGE     =     5712366.5000               STORAGE     =           2.2731
       CONSTANT HEAD     =           0.0000         CONSTANT HEAD     =           0.0000
     HEAD DEP BOUNDS     =     2429027.2500       HEAD DEP BOUNDS     =           0.2857
      STREAM LEAKAGE     =   101856704.0000        STREAM LEAKAGE     =          11.3295
        UZF RECHARGE     =       73223.9531          UZF RECHARGE     =           0.0000
               GW ET     =           0.0000                 GW ET     =           0.0000
     SURFACE LEAKAGE     =           0.0000       SURFACE LEAKAGE     =           0.0000
           AG WELLS      =           0.0000             AG WELLS      =           0.0000

                TOTAL IN =   110071320.0000                  TOTAL IN =          13.8883

          OUT:                                     OUT:
          ----                                     ----
             STORAGE     =    18673620.0000               STORAGE     =           1.1399
       CONSTANT HEAD     =           0.0000         CONSTANT HEAD     =           0.0000
     HEAD DEP BOUNDS     =     2471232.2500       HEAD DEP BOUNDS     =           0.2935
      STREAM LEAKAGE     =    88916176.0000        STREAM LEAKAGE     =          12.4201
        UZF RECHARGE     =           0.0000          UZF RECHARGE     =           0.0000
               GW ET     =       13732.5078                 GW ET     =       3.3906E-02
     SURFACE LEAKAGE     =           0.0000       SURFACE LEAKAGE     =           0.0000
           AG WELLS      =           0.0000             AG WELLS      =           0.0000

               TOTAL OUT =   110074760.0000                 TOTAL OUT =          13.8873

                IN - OUT =       -3440.0000                  IN - OUT =       9.6989E-04

     PERCENT DISCREPANCY =          -0.00         PERCENT DISCREPANCY =           0.01






         TIME SUMMARY AT END OF TIME STEP    6 IN STRESS PERIOD    5
                    SECONDS     MINUTES      HOURS       DAYS        YEARS
                    -----------------------------------------------------------
   TIME STEP LENGTH  87667.      1461.1      24.352      1.0147     2.77799E-03
 STRESS PERIOD TIME 5.26000E+05  8766.7      146.11      6.0880     1.66679E-02
         TOTAL TIME 8.50239E+06 1.41707E+05  2361.8      98.407     0.26942    
1
 
 SOLVING FOR HEAD 
                                                   Max.-Head-Change                         Max.-Flux-Residual
  Residual-Control   Outer-Iter.   Inner-Iter.     Column Row Layer    Maximum-Head-Change  Column Row Layer    Maximum-Flux-Residual          L2-NORM 
          0                 1           2             2   13     1      -0.7076752703E-02       2   13    1        -0.3980116496E+00      0.7498222647E+00
          0                 2           2             3    2     1      -0.2176616115E-03       3    2    1        -0.1166335563E-01      0.2685323919E-01
          0                 3           2             4   13     1      -0.3204724138E-03       4   13    1        -0.1835811220E-01      0.3692837854E-01
          0                 4           2             2   13     1      -0.1416866478E-03       2   13    1        -0.8422107668E-02      0.1484136672E-01
          0                 5           1             2   13     1      -0.7116221385E-04       2   13    1        -0.4229800497E-02      0.7603710726E-02

    ------------------------------------------------
       NWT REQUIRED            5 OUTER ITERATIONS 
       AND A TOTAL OF          9 INNER ITERATIONS.
    ------------------------------------------------

 OUTPUT CONTROL FOR STRESS PERIOD    5   TIME STEP    7
    PRINT BUDGET
    SAVE BUDGET
 UBDSV1 SAVING "         STORAGE" ON UNIT 102 AT TIME STEP  7, STRESS PERIOD   5
 UBDSV2 SAVING "   CONSTANT HEAD" ON UNIT 102 AT TIME STEP  7, STRESS PERIOD   5
 UBDSV1 SAVING "FLOW RIGHT FACE " ON UNIT 102 AT TIME STEP  7, STRESS PERIOD   5
 UBDSV1 SAVING "FLOW FRONT FACE " ON UNIT 102 AT TIME STEP  7, STRESS PERIOD   5

  HEAD DEP BOUNDS   PERIOD    5   STEP     7
 BOUNDARY      1   LAYER   1   ROW    13   COL     1   RATE   -0.293281    
 BOUNDARY      2   LAYER   1   ROW    14   COL     9   RATE    0.285741    



 STREAM LISTING     PERIOD      5   STEP        7

 LAYER ROW COL. STREAM  RCH.  FLOW INTO     FLOW TO   FLOW OUT OF   OVRLND.     DIRECT     STREAM       STREAM     STREAM     STREAM   STREAMBED  STREAMBED
                SEG.NO.  NO.  STRM. RCH.    AQUIFER    STRM. RCH.    RUNOFF     PRECIP       ET          HEAD       DEPTH      WIDTH   CONDCTNC.   GRADIENT

   1    1    1     1     1    2.1000E+01  2.2592E-01   2.0774E+01  0.000E+00  0.000E+00  0.000E+00  1.09416E+03  1.115E+00  1.220E+01  5.490E-02  1.372E+00
   1    2    2     1     2    2.0774E+01  3.4916E-01   2.0425E+01  0.000E+00  0.000E+00  0.000E+00  1.08917E+03  1.110E+00  1.214E+01  8.495E-02  1.370E+00
   1    3    3     1     3    2.0425E+01  2.9709E-01   2.0128E+01  0.000E+00  0.000E+00  0.000E+00  1.08352E+03  1.105E+00  1.206E+01  7.238E-02  1.368E+00
   1    3    4     1     4    2.0128E+01  2.7299E-01   1.9855E+01  0.000E+00  0.000E+00  0.000E+00  1.07851E+03  1.100E+00  1.200E+01  6.659E-02  1.367E+00
   1    4    5     2     1    1.7855E+01  3.1056E-01   1.7544E+01  0.000E+00  0.000E+00  0.000E+00  1.07292E+03  9.816E-01  1.200E+01  7.800E-02  1.327E+00
   1    5    6     2     2    1.7544E+01  2.3834E-01   1.7306E+01  0.000E+00  0.000E+00  0.000E+00  1.06748E+03  9.724E-01  1.200E+01  6.000E-02  1.324E+00
   1    6    6     2     3    1.7306E+01  2.3787E-01   1.7068E+01  0.000E+00  0.000E+00  0.000E+00  1.06276E+03  9.644E-01  1.200E+01  6.000E-02  1.321E+00
   1    7    6     2     4    1.7068E+01  2.3738E-01   1.6831E+01  0.000E+00  0.000E+00  0.000E+00  1.05803E+03  9.564E-01  1.200E+01  6.000E-02  1.319E+00
   1    8    6     2     5    1.6831E+01  2.3690E-01   1.6594E+01  0.000E+00  0.000E+00  0.000E+00  1.05331E+03  9.483E-01  1.200E+01  6.000E-02  1.316E+00
   1    3    5     3     1    2.0000E+00  2.8252E-01   1.7175E+00  0.000E+00  0.000E+00  0.000E+00  1.07555E+03  1.909E+00  9.636E+00  7.227E-02  1.955E+00
   1    3    6     3     2    1.7175E+00  2.4905E-01   1.4684E+00  0.000E+00  0.000E+00  0.000E+00  1.07264E+03  1.727E+00  8.909E+00  6.682E-02  1.864E+00
   1    3    7     3     3    1.4684E+00  1.9718E-01   1.2712E+00  0.000E+00  0.000E+00  0.000E+00  1.06987E+03  1.555E+00  8.218E+00  5.547E-02  1.777E+00
   1    4    8     3     4    1.2712E+00  2.2567E-01   1.0456E+00  0.000E+00  0.000E+00  0.000E+00  1.06682E+03  1.364E+00  7.455E+00  6.709E-02  1.682E+00
   1    5    8     3     5    1.0456E+00  1.5790E-01   8.8768E-01  0.000E+00  0.000E+00  0.000E+00  1.06362E+03  1.164E+00  6.655E+00  4.991E-02  1.582E+00
   1    6    8     3     6    8.8768E-01  5.5980E-02   8.3170E-01  0.000E+00  0.000E+00  0.000E+00  1.06158E+03  1.036E+00  6.145E+00  1.844E-02  1.518E+00
   1    5   10     4     1    1.0000E+01  9.0919E-02   9.9091E+00  0.000E+00  0.000E+00  0.000E+00  1.07836E+03  6.368E-01  1.000E+01  2.500E-02  1.212E+00
   1    5    9     4     2    9.9091E+00  1.8158E-01   9.7275E+00  0.000E+00  0.000E+00  0.000E+00  1.07154E+03  6.315E-01  1.000E+01  5.000E-02  1.211E+00
   1    6    8     4     3    9.7275E+00  1.2689E-01   9.6006E+00  0.000E+00  0.000E+00  0.000E+00  1.06381E+03  6.256E-01  1.000E+01  3.500E-02  1.209E+00
   1    6    8     5     1    1.0432E+01  2.2686E-01   1.0205E+01  0.000E+00  0.000E+00  0.000E+00  1.05868E+03  6.790E-01  1.542E+01  6.166E-02  1.226E+00
   1    7    7     5     2    1.0205E+01  2.7894E-01   9.9265E+00  0.000E+00  0.000E+00  0.000E+00  1.05417E+03  6.732E-01  1.519E+01  7.594E-02  1.224E+00
   1    8    7     5     3    9.9265E+00  1.9221E-01   9.7343E+00  0.000E+00  0.000E+00  0.000E+00  1.04992E+03  6.676E-01  1.497E+01  5.241E-02  1.223E+00
   1    8    6     5     4    9.7343E+00  1.3577E-01   9.5985E+00  0.000E+00  0.000E+00  0.000E+00  1.04691E+03  6.637E-01  1.482E+01  3.706E-02  1.221E+00
   1    9    6     6     1    2.2719E+01  2.4915E-01   2.2470E+01  0.000E+00  0.000E+00  0.000E+00  1.04388E+03  1.153E+00  1.200E+01  6.000E-02  1.384E+00
   1   10    7     6     2    2.2470E+01  2.4870E-01   2.2221E+01  0.000E+00  0.000E+00  0.000E+00  1.03933E+03  1.145E+00  1.200E+01  6.000E-02  1.382E+00
   1   11    7     6     3    2.2221E+01  2.4824E-01   2.1973E+01  0.000E+00  0.000E+00  0.000E+00  1.03477E+03  1.137E+00  1.200E+01  6.000E-02  1.379E+00
   1   12    7     6     4    2.1973E+01  2.4778E-01   2.1725E+01  0.000E+00  0.000E+00  0.000E+00  1.03022E+03  1.130E+00  1.200E+01  6.000E-02  1.377E+00
   1   13    7     6     5    2.1725E+01 -2.3380E-02   2.1748E+01  0.000E+00  0.000E+00  0.000E+00  1.02704E+03  1.126E+00  1.200E+01  2.400E-01 -3.247E-02
   1   14    9     7     1    1.5000E+02  1.3356E+00   1.4866E+02  0.000E+00  0.000E+00  0.000E+00  1.03987E+03  2.288E+00  5.529E+01  5.593E-01  7.960E-01
   1   13    8     7     2    1.4866E+02  1.8261E+00   1.4684E+02  0.000E+00  0.000E+00  0.000E+00  1.03478E+03  2.279E+00  5.526E+01  6.148E-01  9.901E-01
   1   13    7     7     3    1.4684E+02  1.4281E+00   1.4541E+02  0.000E+00  0.000E+00  0.000E+00  1.02969E+03  2.271E+00  5.522E+01  5.585E-01  8.524E-01
   1   13    6     8     1    1.6716E+02  8.4431E-01   1.6631E+02  0.000E+00  0.000E+00  0.000E+00  1.02481E+03  2.932E+00  4.251E+01  4.332E-01  6.497E-01
   1   13    5     8     2    1.6631E+02  9.4780E-02   1.6622E+02  0.000E+00  0.000E+00  0.000E+00  1.01855E+03  2.928E+00  4.246E+01  4.327E-01  7.301E-02
   1   13    4     8     3    1.6622E+02 -2.9722E+00   1.6919E+02  0.000E+00  0.000E+00  0.000E+00  1.01231E+03  2.938E+00  4.260E+01  4.341E+00 -2.282E-01
   1   13    3     8     4    1.6919E+02 -4.0795E+00   1.7327E+02  0.000E+00  0.000E+00  0.000E+00  1.00609E+03  2.961E+00  4.293E+01  4.375E+00 -3.108E-01
   1   13    2     8     5    1.7327E+02 -3.0021E+00   1.7627E+02  0.000E+00  0.000E+00  0.000E+00  9.99859E+02  2.984E+00  4.326E+01  4.409E+00 -2.270E-01
   1   13    1     8     6    1.7627E+02 -2.2411E+00   1.7851E+02  0.000E+00  0.000E+00  0.000E+00  9.94875E+02  3.000E+00  4.351E+01  2.660E+00 -2.808E-01
   1    8    6     9     1    3.4737E+00  0.0000E+00   3.4737E+00  0.000E+00  0.000E+00  0.000E+00  1.07993E+03  1.178E+00  4.000E+00  0.000E+00  1.393E+00
   1    8    5     9     2    3.4737E+00  0.0000E+00   3.4737E+00  0.000E+00  0.000E+00  0.000E+00  1.07943E+03  1.178E+00  4.000E+00  0.000E+00  1.393E+00



 UBDSV3 SAVING "           GW ET" ON UNIT  61 AT TIME STEP  7, STRESS PERIOD   5
 UBDSV3 SAVING "    UZF RECHARGE" ON UNIT  61 AT TIME STEP  7, STRESS PERIOD   5
 UBDSV3 SAVING " SURFACE LEAKAGE" ON UNIT  61 AT TIME STEP  7, STRESS PERIOD   5
 UBDSV3 SAVING "       HORT+DUNN" ON UNIT  61 AT TIME STEP  7, STRESS PERIOD   5
 UBDSV3 SAVING "  STORAGE CHANGE" ON UNIT  61 AT TIME STEP  7, STRESS PERIOD   5


UNSATURATED ZONE PACKAGE VOLUMETRIC BUDGET FOR  TIME STEP     7 STRESS PERIOD    5
  ------------------------------------------------------------------------------



     CUMULATIVE VOLUMES      L**3       RATES FOR THIS TIME STEP      L**3/T
     ------------------                 ------------------------

           IN:                                      IN:
           ---                                      ---
        INFILTRATION =    39225142.1707          INFILTRATION =           7.8813

          OUT:                                     OUT:
          ----                                     ----
              UZF ET =    18788238.1370                UZF ET =          16.0982
        UZF RECHARGE =       73224.0000          UZF RECHARGE =       0.0000E+00

            IN - OUT =    20363680.0337              IN - OUT =          -8.2169

          STORAGE:                                 STORAGE:
          --------                                 --------
      STORAGE CHANGE =    20363679.7124        STORAGE CHANGE =          -8.2169

 PERCENT DISCREPANCY IS DIFFERENCE BETWEEN IN-OUT MINUS CHANGE IN STORAGE
 DIVIDED BY THE AVERAGE OF IN AND OUT TIMES 100

 PERCENT DISCREPANCY =           0.00     PERCENT DISCREPANCY =           0.00






 

            AG WELLS      PERIOD    5   STEP   7
 AG WELL      1   LAYER   1   ROW     6   COL     4   RATE     0.00000    
 AG WELL      2   LAYER   1   ROW     6   COL     5   RATE     0.00000    
 AG WELL      3   LAYER   1   ROW     7   COL     4   RATE     0.00000    
 AG WELL      4   LAYER   1   ROW     7   COL     5   RATE     0.00000    
 AG WELL      5   LAYER   1   ROW     8   COL     4   RATE     0.00000    
 AG WELL      6   LAYER   1   ROW     8   COL     5   RATE     0.00000    
 
 

   DIVERSION SEGMENTS     PERIOD    5   STEP   7
 SEGMENT      9   RATE     3.47369    
 
 

        SW IRRIGATION     PERIOD    5   STEP   7
 SEGMENT      9   ROW     6   COL     4   RATE    0.578960    
 SEGMENT      9   ROW     6   COL     5   RATE    0.578960    
 SEGMENT      9   ROW     7   COL     4   RATE    0.578960    
 SEGMENT      9   ROW     7   COL     5   RATE    0.578960    
 SEGMENT      9   ROW     8   COL     4   RATE    0.578960    
 SEGMENT      9   ROW     8   COL     5   RATE    0.578960    
 
 

        GW IRRIGATION     PERIOD    5   STEP   7
 AG WELL      1   ROW     6   COL     4   RATE     0.00000    
 AG WELL      2   ROW     6   COL     5   RATE     0.00000    
 AG WELL      3   ROW     7   COL     4   RATE     0.00000    
 AG WELL      4   ROW     7   COL     5   RATE     0.00000    
 AG WELL      5   ROW     8   COL     4   RATE     0.00000    
 AG WELL      6   ROW     8   COL     5   RATE     0.00000    
 
1
  VOLUMETRIC BUDGET FOR AGRICULTURAL FIELDS AT TIME STEP    7, STRESS PERIOD   5
  ------------------------------------------------------------------------------

     CUMULATIVE VOLUMES      L**3       RATES FOR THIS TIME STEP      L**3/T
     ------------------                 ------------------------

           IN:                                      IN:
           ---                                      ---
               AG WELLS  =           0.0000                 AG WELLS  =           0.0000
      DIVERSION SEGMENTS =     1671975.2500        DIVERSION SEGMENTS =           3.4737
           GW IRRIGATION =           0.0000             GW IRRIGATION =           0.0000
           SW IRRIGATION =           0.0000             SW IRRIGATION =           0.0000
        SYSTEM LOSSES GW =           0.0000          SYSTEM LOSSES GW =           0.0000
        SYSTEM LOSSES SW =           0.0000          SYSTEM LOSSES SW =           0.0000

                TOTAL IN =     1671975.2500                  TOTAL IN =           3.4737

          OUT:                                     OUT:
          ----                                     ----
               AG WELLS  =           0.0000                 AG WELLS  =           0.0000
      DIVERSION SEGMENTS =           0.0000        DIVERSION SEGMENTS =           0.0000
           GW IRRIGATION =           0.0000             GW IRRIGATION =           0.0000
           SW IRRIGATION =     1672008.7500             SW IRRIGATION =           3.4738
        SYSTEM LOSSES GW =           0.0000          SYSTEM LOSSES GW =           0.0000
        SYSTEM LOSSES SW =           0.0000          SYSTEM LOSSES SW =           0.0000

               TOTAL OUT =     1672008.7500                 TOTAL OUT =           3.4738

                IN - OUT =         -33.5000                  IN - OUT =      -6.9380E-05

     PERCENT DISCREPANCY =          -0.00         PERCENT DISCREPANCY =          -0.00



1
  VOLUMETRIC BUDGET FOR ENTIRE MODEL AT END OF TIME STEP    7, STRESS PERIOD   5
  ------------------------------------------------------------------------------

     CUMULATIVE VOLUMES      L**3       RATES FOR THIS TIME STEP      L**3/T
     ------------------                 ------------------------

           IN:                                      IN:
           ---                                      ---
             STORAGE     =     5899247.0000               STORAGE     =           2.1317
       CONSTANT HEAD     =           0.0000         CONSTANT HEAD     =           0.0000
     HEAD DEP BOUNDS     =     2454077.2500       HEAD DEP BOUNDS     =           0.2857
      STREAM LEAKAGE     =   102850000.0000        STREAM LEAKAGE     =          11.3304
        UZF RECHARGE     =       73223.9531          UZF RECHARGE     =           0.0000
               GW ET     =           0.0000                 GW ET     =           0.0000
     SURFACE LEAKAGE     =           0.0000       SURFACE LEAKAGE     =           0.0000
           AG WELLS      =           0.0000             AG WELLS      =           0.0000

                TOTAL IN =   111276552.0000                  TOTAL IN =          13.7478

          OUT:                                     OUT:
          ----                                     ----
             STORAGE     =    18771292.0000               STORAGE     =           1.1141
       CONSTANT HEAD     =           0.0000         CONSTANT HEAD     =           0.0000
     HEAD DEP BOUNDS     =     2496943.2500       HEAD DEP BOUNDS     =           0.2933
      STREAM LEAKAGE     =    89996080.0000        STREAM LEAKAGE     =          12.3183
        UZF RECHARGE     =           0.0000          UZF RECHARGE     =           0.0000
               GW ET     =       15568.7754                 GW ET     =       2.0946E-02
     SURFACE LEAKAGE     =           0.0000       SURFACE LEAKAGE     =           0.0000
           AG WELLS      =           0.0000             AG WELLS      =           0.0000

               TOTAL OUT =   111279888.0000                 TOTAL OUT =          13.7466

                IN - OUT =       -3336.0000                  IN - OUT =       1.1911E-03

     PERCENT DISCREPANCY =          -0.00         PERCENT DISCREPANCY =           0.01






         TIME SUMMARY AT END OF TIME STEP    7 IN STRESS PERIOD    5
                    SECONDS     MINUTES      HOURS       DAYS        YEARS
                    -----------------------------------------------------------
   TIME STEP LENGTH  87667.      1461.1      24.352      1.0147     2.77799E-03
 STRESS PERIOD TIME 6.13667E+05  10228.      170.46      7.1026     1.94459E-02
         TOTAL TIME 8.59006E+06 1.43168E+05  2386.1      99.422     0.27220    
1
 
 SOLVING FOR HEAD 
                                                   Max.-Head-Change                         Max.-Flux-Residual
  Residual-Control   Outer-Iter.   Inner-Iter.     Column Row Layer    Maximum-Head-Change  Column Row Layer    Maximum-Flux-Residual          L2-NORM 
          0                 1           2             2   13     1      -0.6462929007E-02       2   13    1        -0.3634993318E+00      0.6843515394E+00
          0                 2           2             3    2     1      -0.2166612635E-03       3    2    1        -0.1160924390E-01      0.2685772464E-01
          0                 3           2             2   13     1      -0.3167095235E-03       4   13    1        -0.1814230794E-01      0.3655169366E-01
          0                 4           2             4   13     1      -0.1325843489E-03       4   13    1        -0.7596843490E-02      0.1359195097E-01
          0                 5           1             4   13     1      -0.6920514293E-04       4   13    1        -0.3964946961E-02      0.7163770305E-02

    ------------------------------------------------
       NWT REQUIRED            5 OUTER ITERATIONS 
       AND A TOTAL OF          9 INNER ITERATIONS.
    ------------------------------------------------

 OUTPUT CONTROL FOR STRESS PERIOD    5   TIME STEP    8
    PRINT BUDGET
    SAVE BUDGET
 UBDSV1 SAVING "         STORAGE" ON UNIT 102 AT TIME STEP  8, STRESS PERIOD   5
 UBDSV2 SAVING "   CONSTANT HEAD" ON UNIT 102 AT TIME STEP  8, STRESS PERIOD   5
 UBDSV1 SAVING "FLOW RIGHT FACE " ON UNIT 102 AT TIME STEP  8, STRESS PERIOD   5
 UBDSV1 SAVING "FLOW FRONT FACE " ON UNIT 102 AT TIME STEP  8, STRESS PERIOD   5

  HEAD DEP BOUNDS   PERIOD    5   STEP     8
 BOUNDARY      1   LAYER   1   ROW    13   COL     1   RATE   -0.293105    
 BOUNDARY      2   LAYER   1   ROW    14   COL     9   RATE    0.285742    



 STREAM LISTING     PERIOD      5   STEP        8

 LAYER ROW COL. STREAM  RCH.  FLOW INTO     FLOW TO   FLOW OUT OF   OVRLND.     DIRECT     STREAM       STREAM     STREAM     STREAM   STREAMBED  STREAMBED
                SEG.NO.  NO.  STRM. RCH.    AQUIFER    STRM. RCH.    RUNOFF     PRECIP       ET          HEAD       DEPTH      WIDTH   CONDCTNC.   GRADIENT

   1    1    1     1     1    2.1000E+01  2.2592E-01   2.0774E+01  0.000E+00  0.000E+00  0.000E+00  1.09416E+03  1.115E+00  1.220E+01  5.490E-02  1.372E+00
   1    2    2     1     2    2.0774E+01  3.4916E-01   2.0425E+01  0.000E+00  0.000E+00  0.000E+00  1.08917E+03  1.110E+00  1.214E+01  8.495E-02  1.370E+00
   1    3    3     1     3    2.0425E+01  2.9709E-01   2.0128E+01  0.000E+00  0.000E+00  0.000E+00  1.08352E+03  1.105E+00  1.206E+01  7.238E-02  1.368E+00
   1    3    4     1     4    2.0128E+01  2.7299E-01   1.9855E+01  0.000E+00  0.000E+00  0.000E+00  1.07851E+03  1.100E+00  1.200E+01  6.659E-02  1.367E+00
   1    4    5     2     1    1.7855E+01  3.1056E-01   1.7544E+01  0.000E+00  0.000E+00  0.000E+00  1.07292E+03  9.816E-01  1.200E+01  7.800E-02  1.327E+00
   1    5    6     2     2    1.7544E+01  2.3834E-01   1.7306E+01  0.000E+00  0.000E+00  0.000E+00  1.06748E+03  9.724E-01  1.200E+01  6.000E-02  1.324E+00
   1    6    6     2     3    1.7306E+01  2.3787E-01   1.7068E+01  0.000E+00  0.000E+00  0.000E+00  1.06276E+03  9.644E-01  1.200E+01  6.000E-02  1.321E+00
   1    7    6     2     4    1.7068E+01  2.3738E-01   1.6831E+01  0.000E+00  0.000E+00  0.000E+00  1.05803E+03  9.564E-01  1.200E+01  6.000E-02  1.319E+00
   1    8    6     2     5    1.6831E+01  2.3690E-01   1.6594E+01  0.000E+00  0.000E+00  0.000E+00  1.05331E+03  9.483E-01  1.200E+01  6.000E-02  1.316E+00
   1    3    5     3     1    2.0000E+00  2.8252E-01   1.7175E+00  0.000E+00  0.000E+00  0.000E+00  1.07555E+03  1.909E+00  9.636E+00  7.227E-02  1.955E+00
   1    3    6     3     2    1.7175E+00  2.4905E-01   1.4684E+00  0.000E+00  0.000E+00  0.000E+00  1.07264E+03  1.727E+00  8.909E+00  6.682E-02  1.864E+00
   1    3    7     3     3    1.4684E+00  1.9718E-01   1.2712E+00  0.000E+00  0.000E+00  0.000E+00  1.06987E+03  1.555E+00  8.218E+00  5.547E-02  1.777E+00
   1    4    8     3     4    1.2712E+00  2.2567E-01   1.0456E+00  0.000E+00  0.000E+00  0.000E+00  1.06682E+03  1.364E+00  7.455E+00  6.709E-02  1.682E+00
   1    5    8     3     5    1.0456E+00  1.5790E-01   8.8768E-01  0.000E+00  0.000E+00  0.000E+00  1.06362E+03  1.164E+00  6.655E+00  4.991E-02  1.582E+00
   1    6    8     3     6    8.8768E-01  5.5980E-02   8.3170E-01  0.000E+00  0.000E+00  0.000E+00  1.06158E+03  1.036E+00  6.145E+00  1.844E-02  1.518E+00
   1    5   10     4     1    1.0000E+01  9.0919E-02   9.9091E+00  0.000E+00  0.000E+00  0.000E+00  1.07836E+03  6.368E-01  1.000E+01  2.500E-02  1.212E+00
   1    5    9     4     2    9.9091E+00  1.8158E-01   9.7275E+00  0.000E+00  0.000E+00  0.000E+00  1.07154E+03  6.315E-01  1.000E+01  5.000E-02  1.211E+00
   1    6    8     4     3    9.7275E+00  1.2689E-01   9.6006E+00  0.000E+00  0.000E+00  0.000E+00  1.06381E+03  6.256E-01  1.000E+01  3.500E-02  1.209E+00
   1    6    8     5     1    1.0432E+01  2.2686E-01   1.0205E+01  0.000E+00  0.000E+00  0.000E+00  1.05868E+03  6.790E-01  1.542E+01  6.166E-02  1.226E+00
   1    7    7     5     2    1.0205E+01  2.7894E-01   9.9265E+00  0.000E+00  0.000E+00  0.000E+00  1.05417E+03  6.732E-01  1.519E+01  7.594E-02  1.224E+00
   1    8    7     5     3    9.9265E+00  1.9221E-01   9.7343E+00  0.000E+00  0.000E+00  0.000E+00  1.04992E+03  6.676E-01  1.497E+01  5.241E-02  1.223E+00
   1    8    6     5     4    9.7343E+00  1.3577E-01   9.5985E+00  0.000E+00  0.000E+00  0.000E+00  1.04691E+03  6.637E-01  1.482E+01  3.706E-02  1.221E+00
   1    9    6     6     1    2.2726E+01  2.4917E-01   2.2477E+01  0.000E+00  0.000E+00  0.000E+00  1.04388E+03  1.153E+00  1.200E+01  6.000E-02  1.384E+00
   1   10    7     6     2    2.2477E+01  2.4871E-01   2.2228E+01  0.000E+00  0.000E+00  0.000E+00  1.03933E+03  1.145E+00  1.200E+01  6.000E-02  1.382E+00
   1   11    7     6     3    2.2228E+01  2.4825E-01   2.1980E+01  0.000E+00  0.000E+00  0.000E+00  1.03477E+03  1.138E+00  1.200E+01  6.000E-02  1.379E+00
   1   12    7     6     4    2.1980E+01  2.4779E-01   2.1732E+01  0.000E+00  0.000E+00  0.000E+00  1.03022E+03  1.130E+00  1.200E+01  6.000E-02  1.377E+00
   1   13    7     6     5    2.1732E+01 -2.3307E-02   2.1756E+01  0.000E+00  0.000E+00  0.000E+00  1.02704E+03  1.126E+00  1.200E+01  2.400E-01 -3.237E-02
   1   14    9     7     1    1.5000E+02  1.3356E+00   1.4866E+02  0.000E+00  0.000E+00  0.000E+00  1.03987E+03  2.288E+00  5.529E+01  5.593E-01  7.960E-01
   1   13    8     7     2    1.4866E+02  1.8259E+00   1.4684E+02  0.000E+00  0.000E+00  0.000E+00  1.03478E+03  2.279E+00  5.526E+01  6.148E-01  9.900E-01
   1   13    7     7     3    1.4684E+02  1.4282E+00   1.4541E+02  0.000E+00  0.000E+00  0.000E+00  1.02969E+03  2.271E+00  5.522E+01  5.585E-01  8.524E-01
   1   13    6     8     1    1.6717E+02  8.4487E-01   1.6632E+02  0.000E+00  0.000E+00  0.000E+00  1.02481E+03  2.932E+00  4.251E+01  4.332E-01  6.501E-01
   1   13    5     8     2    1.6632E+02  9.5305E-02   1.6623E+02  0.000E+00  0.000E+00  0.000E+00  1.01855E+03  2.929E+00  4.246E+01  4.327E-01  7.342E-02
   1   13    4     8     3    1.6623E+02 -2.9453E+00   1.6917E+02  0.000E+00  0.000E+00  0.000E+00  1.01231E+03  2.938E+00  4.260E+01  4.341E+00 -2.262E-01
   1   13    3     8     4    1.6917E+02 -4.0529E+00   1.7322E+02  0.000E+00  0.000E+00  0.000E+00  1.00609E+03  2.961E+00  4.293E+01  4.375E+00 -3.088E-01
   1   13    2     8     5    1.7322E+02 -2.9726E+00   1.7620E+02  0.000E+00  0.000E+00  0.000E+00  9.99858E+02  2.983E+00  4.326E+01  4.408E+00 -2.248E-01
   1   13    1     8     6    1.7620E+02 -2.2298E+00   1.7843E+02  0.000E+00  0.000E+00  0.000E+00  9.94875E+02  3.000E+00  4.350E+01  2.660E+00 -2.795E-01
   1    8    6     9     1    3.4661E+00  0.0000E+00   3.4661E+00  0.000E+00  0.000E+00  0.000E+00  1.07993E+03  1.177E+00  4.000E+00  0.000E+00  1.392E+00
   1    8    5     9     2    3.4661E+00  0.0000E+00   3.4661E+00  0.000E+00  0.000E+00  0.000E+00  1.07943E+03  1.177E+00  4.000E+00  0.000E+00  1.392E+00



 UBDSV3 SAVING "           GW ET" ON UNIT  61 AT TIME STEP  8, STRESS PERIOD   5
 UBDSV3 SAVING "    UZF RECHARGE" ON UNIT  61 AT TIME STEP  8, STRESS PERIOD   5
 UBDSV3 SAVING " SURFACE LEAKAGE" ON UNIT  61 AT TIME STEP  8, STRESS PERIOD   5
 UBDSV3 SAVING "       HORT+DUNN" ON UNIT  61 AT TIME STEP  8, STRESS PERIOD   5
 UBDSV3 SAVING "  STORAGE CHANGE" ON UNIT  61 AT TIME STEP  8, STRESS PERIOD   5


UNSATURATED ZONE PACKAGE VOLUMETRIC BUDGET FOR  TIME STEP     8 STRESS PERIOD    5
  ------------------------------------------------------------------------------



     CUMULATIVE VOLUMES      L**3       RATES FOR THIS TIME STEP      L**3/T
     ------------------                 ------------------------

           IN:                                      IN:
           ---                                      ---
        INFILTRATION =    39915404.8259          INFILTRATION =           7.8737

          OUT:                                     OUT:
          ----                                     ----
              UZF ET =    20203179.1809                UZF ET =          16.1400
        UZF RECHARGE =       73224.0000          UZF RECHARGE =       0.0000E+00

            IN - OUT =    19639001.6450              IN - OUT =          -8.2663

          STORAGE:                                 STORAGE:
          --------                                 --------
      STORAGE CHANGE =    19639001.3334        STORAGE CHANGE =          -8.2663

 PERCENT DISCREPANCY IS DIFFERENCE BETWEEN IN-OUT MINUS CHANGE IN STORAGE
 DIVIDED BY THE AVERAGE OF IN AND OUT TIMES 100

 PERCENT DISCREPANCY =           0.00     PERCENT DISCREPANCY =           0.00






 

            AG WELLS      PERIOD    5   STEP   8
 AG WELL      1   LAYER   1   ROW     6   COL     4   RATE     0.00000    
 AG WELL      2   LAYER   1   ROW     6   COL     5   RATE     0.00000    
 AG WELL      3   LAYER   1   ROW     7   COL     4   RATE     0.00000    
 AG WELL      4   LAYER   1   ROW     7   COL     5   RATE     0.00000    
 AG WELL      5   LAYER   1   ROW     8   COL     4   RATE     0.00000    
 AG WELL      6   LAYER   1   ROW     8   COL     5   RATE     0.00000    
 
 

   DIVERSION SEGMENTS     PERIOD    5   STEP   8
 SEGMENT      9   RATE     3.46615    
 
 

        SW IRRIGATION     PERIOD    5   STEP   8
 SEGMENT      9   ROW     6   COL     4   RATE    0.577703    
 SEGMENT      9   ROW     6   COL     5   RATE    0.577703    
 SEGMENT      9   ROW     7   COL     4   RATE    0.577703    
 SEGMENT      9   ROW     7   COL     5   RATE    0.577703    
 SEGMENT      9   ROW     8   COL     4   RATE    0.577703    
 SEGMENT      9   ROW     8   COL     5   RATE    0.577703    
 
 

        GW IRRIGATION     PERIOD    5   STEP   8
 AG WELL      1   ROW     6   COL     4   RATE     0.00000    
 AG WELL      2   ROW     6   COL     5   RATE     0.00000    
 AG WELL      3   ROW     7   COL     4   RATE     0.00000    
 AG WELL      4   ROW     7   COL     5   RATE     0.00000    
 AG WELL      5   ROW     8   COL     4   RATE     0.00000    
 AG WELL      6   ROW     8   COL     5   RATE     0.00000    
 
1
  VOLUMETRIC BUDGET FOR AGRICULTURAL FIELDS AT TIME STEP    8, STRESS PERIOD   5
  ------------------------------------------------------------------------------

     CUMULATIVE VOLUMES      L**3       RATES FOR THIS TIME STEP      L**3/T
     ------------------                 ------------------------

           IN:                                      IN:
           ---                                      ---
               AG WELLS  =           0.0000                 AG WELLS  =           0.0000
      DIVERSION SEGMENTS =     1975841.0000        DIVERSION SEGMENTS =           3.4661
           GW IRRIGATION =           0.0000             GW IRRIGATION =           0.0000
           SW IRRIGATION =           0.0000             SW IRRIGATION =           0.0000
        SYSTEM LOSSES GW =           0.0000          SYSTEM LOSSES GW =           0.0000
        SYSTEM LOSSES SW =           0.0000          SYSTEM LOSSES SW =           0.0000

                TOTAL IN =     1975841.0000                  TOTAL IN =           3.4661

          OUT:                                     OUT:
          ----                                     ----
               AG WELLS  =           0.0000                 AG WELLS  =           0.0000
      DIVERSION SEGMENTS =           0.0000        DIVERSION SEGMENTS =           0.0000
           GW IRRIGATION =           0.0000             GW IRRIGATION =           0.0000
           SW IRRIGATION =     1975880.6250             SW IRRIGATION =           3.4662
        SYSTEM LOSSES GW =           0.0000          SYSTEM LOSSES GW =           0.0000
        SYSTEM LOSSES SW =           0.0000          SYSTEM LOSSES SW =           0.0000

               TOTAL OUT =     1975880.6250                 TOTAL OUT =           3.4662

                IN - OUT =         -39.6250                  IN - OUT =      -6.9141E-05

     PERCENT DISCREPANCY =          -0.00         PERCENT DISCREPANCY =          -0.00



1
  VOLUMETRIC BUDGET FOR ENTIRE MODEL AT END OF TIME STEP    8, STRESS PERIOD   5
  ------------------------------------------------------------------------------

     CUMULATIVE VOLUMES      L**3       RATES FOR THIS TIME STEP      L**3/T
     ------------------                 ------------------------

           IN:                                      IN:
           ---                                      ---
             STORAGE     =     6075132.5000               STORAGE     =           2.0063
       CONSTANT HEAD     =           0.0000         CONSTANT HEAD     =           0.0000
     HEAD DEP BOUNDS     =     2479127.2500       HEAD DEP BOUNDS     =           0.2857
      STREAM LEAKAGE     =   103843392.0000        STREAM LEAKAGE     =          11.3315
        UZF RECHARGE     =       73223.9531          UZF RECHARGE     =           0.0000
               GW ET     =           0.0000                 GW ET     =           0.0000
     SURFACE LEAKAGE     =           0.0000       SURFACE LEAKAGE     =           0.0000
           AG WELLS      =           0.0000             AG WELLS      =           0.0000

                TOTAL IN =   112470872.0000                  TOTAL IN =          13.6235

          OUT:                                     OUT:
          ----                                     ----
             STORAGE     =    18866950.0000               STORAGE     =           1.0912
       CONSTANT HEAD     =           0.0000         CONSTANT HEAD     =           0.0000
     HEAD DEP BOUNDS     =     2522638.7500       HEAD DEP BOUNDS     =           0.2931
      STREAM LEAKAGE     =    91067704.0000        STREAM LEAKAGE     =          12.2238
        UZF RECHARGE     =           0.0000          UZF RECHARGE     =           0.0000
               GW ET     =       16781.3438                 GW ET     =       1.3832E-02
     SURFACE LEAKAGE     =           0.0000       SURFACE LEAKAGE     =           0.0000
           AG WELLS      =           0.0000             AG WELLS      =           0.0000

               TOTAL OUT =   112474080.0000                 TOTAL OUT =          13.6219

                IN - OUT =       -3208.0000                  IN - OUT =       1.5802E-03

     PERCENT DISCREPANCY =          -0.00         PERCENT DISCREPANCY =           0.01






         TIME SUMMARY AT END OF TIME STEP    8 IN STRESS PERIOD    5
                    SECONDS     MINUTES      HOURS       DAYS        YEARS
                    -----------------------------------------------------------
   TIME STEP LENGTH  87667.      1461.1      24.352      1.0147     2.77799E-03
 STRESS PERIOD TIME 7.01333E+05  11689.      194.81      8.1173     2.22239E-02
         TOTAL TIME 8.67773E+06 1.44629E+05  2410.5      100.44     0.27498    
1
 
 SOLVING FOR HEAD 
                                                   Max.-Head-Change                         Max.-Flux-Residual
  Residual-Control   Outer-Iter.   Inner-Iter.     Column Row Layer    Maximum-Head-Change  Column Row Layer    Maximum-Flux-Residual          L2-NORM 
          0                 1           2             2   13     1      -0.5893746695E-02       2   13    1        -0.3314919732E+00      0.6277375742E+00
          0                 2           2             3    2     1      -0.2156838266E-03       3    2    1        -0.1155637385E-01      0.2853481214E-01
          0                 3           2             2   13     1      -0.3102381162E-03       4   13    1        -0.1770919510E-01      0.3591092647E-01
          0                 4           2             4   13     1      -0.1356122247E-03       4   13    1        -0.7770413673E-02      0.1388581795E-01
          0                 5           1             4   13     1      -0.6990694964E-04       4   13    1        -0.4005139896E-02      0.7237678188E-02

    ------------------------------------------------
       NWT REQUIRED            5 OUTER ITERATIONS 
       AND A TOTAL OF          9 INNER ITERATIONS.
    ------------------------------------------------

 OUTPUT CONTROL FOR STRESS PERIOD    5   TIME STEP    9
    PRINT BUDGET
    SAVE BUDGET
 UBDSV1 SAVING "         STORAGE" ON UNIT 102 AT TIME STEP  9, STRESS PERIOD   5
 UBDSV2 SAVING "   CONSTANT HEAD" ON UNIT 102 AT TIME STEP  9, STRESS PERIOD   5
 UBDSV1 SAVING "FLOW RIGHT FACE " ON UNIT 102 AT TIME STEP  9, STRESS PERIOD   5
 UBDSV1 SAVING "FLOW FRONT FACE " ON UNIT 102 AT TIME STEP  9, STRESS PERIOD   5

  HEAD DEP BOUNDS   PERIOD    5   STEP     9
 BOUNDARY      1   LAYER   1   ROW    13   COL     1   RATE   -0.292936    
 BOUNDARY      2   LAYER   1   ROW    14   COL     9   RATE    0.285742    



 STREAM LISTING     PERIOD      5   STEP        9

 LAYER ROW COL. STREAM  RCH.  FLOW INTO     FLOW TO   FLOW OUT OF   OVRLND.     DIRECT     STREAM       STREAM     STREAM     STREAM   STREAMBED  STREAMBED
                SEG.NO.  NO.  STRM. RCH.    AQUIFER    STRM. RCH.    RUNOFF     PRECIP       ET          HEAD       DEPTH      WIDTH   CONDCTNC.   GRADIENT

   1    1    1     1     1    2.1000E+01  2.2592E-01   2.0774E+01  0.000E+00  0.000E+00  0.000E+00  1.09416E+03  1.115E+00  1.220E+01  5.490E-02  1.372E+00
   1    2    2     1     2    2.0774E+01  3.4916E-01   2.0425E+01  0.000E+00  0.000E+00  0.000E+00  1.08917E+03  1.110E+00  1.214E+01  8.495E-02  1.370E+00
   1    3    3     1     3    2.0425E+01  2.9709E-01   2.0128E+01  0.000E+00  0.000E+00  0.000E+00  1.08352E+03  1.105E+00  1.206E+01  7.238E-02  1.368E+00
   1    3    4     1     4    2.0128E+01  2.7299E-01   1.9855E+01  0.000E+00  0.000E+00  0.000E+00  1.07851E+03  1.100E+00  1.200E+01  6.659E-02  1.367E+00
   1    4    5     2     1    1.7855E+01  3.1056E-01   1.7544E+01  0.000E+00  0.000E+00  0.000E+00  1.07292E+03  9.816E-01  1.200E+01  7.800E-02  1.327E+00
   1    5    6     2     2    1.7544E+01  2.3834E-01   1.7306E+01  0.000E+00  0.000E+00  0.000E+00  1.06748E+03  9.724E-01  1.200E+01  6.000E-02  1.324E+00
   1    6    6     2     3    1.7306E+01  2.3787E-01   1.7068E+01  0.000E+00  0.000E+00  0.000E+00  1.06276E+03  9.644E-01  1.200E+01  6.000E-02  1.321E+00
   1    7    6     2     4    1.7068E+01  2.3738E-01   1.6831E+01  0.000E+00  0.000E+00  0.000E+00  1.05803E+03  9.564E-01  1.200E+01  6.000E-02  1.319E+00
   1    8    6     2     5    1.6831E+01  2.3690E-01   1.6594E+01  0.000E+00  0.000E+00  0.000E+00  1.05331E+03  9.483E-01  1.200E+01  6.000E-02  1.316E+00
   1    3    5     3     1    2.0000E+00  2.8252E-01   1.7175E+00  0.000E+00  0.000E+00  0.000E+00  1.07555E+03  1.909E+00  9.636E+00  7.227E-02  1.955E+00
   1    3    6     3     2    1.7175E+00  2.4905E-01   1.4684E+00  0.000E+00  0.000E+00  0.000E+00  1.07264E+03  1.727E+00  8.909E+00  6.682E-02  1.864E+00
   1    3    7     3     3    1.4684E+00  1.9718E-01   1.2712E+00  0.000E+00  0.000E+00  0.000E+00  1.06987E+03  1.555E+00  8.218E+00  5.547E-02  1.777E+00
   1    4    8     3     4    1.2712E+00  2.2567E-01   1.0456E+00  0.000E+00  0.000E+00  0.000E+00  1.06682E+03  1.364E+00  7.455E+00  6.709E-02  1.682E+00
   1    5    8     3     5    1.0456E+00  1.5790E-01   8.8768E-01  0.000E+00  0.000E+00  0.000E+00  1.06362E+03  1.164E+00  6.655E+00  4.991E-02  1.582E+00
   1    6    8     3     6    8.8768E-01  5.5980E-02   8.3170E-01  0.000E+00  0.000E+00  0.000E+00  1.06158E+03  1.036E+00  6.145E+00  1.844E-02  1.518E+00
   1    5   10     4     1    1.0000E+01  9.0919E-02   9.9091E+00  0.000E+00  0.000E+00  0.000E+00  1.07836E+03  6.368E-01  1.000E+01  2.500E-02  1.212E+00
   1    5    9     4     2    9.9091E+00  1.8158E-01   9.7275E+00  0.000E+00  0.000E+00  0.000E+00  1.07154E+03  6.315E-01  1.000E+01  5.000E-02  1.211E+00
   1    6    8     4     3    9.7275E+00  1.2689E-01   9.6006E+00  0.000E+00  0.000E+00  0.000E+00  1.06381E+03  6.256E-01  1.000E+01  3.500E-02  1.209E+00
   1    6    8     5     1    1.0432E+01  2.2686E-01   1.0205E+01  0.000E+00  0.000E+00  0.000E+00  1.05868E+03  6.790E-01  1.542E+01  6.166E-02  1.226E+00
   1    7    7     5     2    1.0205E+01  2.7894E-01   9.9265E+00  0.000E+00  0.000E+00  0.000E+00  1.05417E+03  6.732E-01  1.519E+01  7.594E-02  1.224E+00
   1    8    7     5     3    9.9265E+00  1.9221E-01   9.7343E+00  0.000E+00  0.000E+00  0.000E+00  1.04992E+03  6.676E-01  1.497E+01  5.241E-02  1.223E+00
   1    8    6     5     4    9.7343E+00  1.3577E-01   9.5985E+00  0.000E+00  0.000E+00  0.000E+00  1.04691E+03  6.637E-01  1.482E+01  3.706E-02  1.221E+00
   1    9    6     6     1    2.2723E+01  2.4916E-01   2.2474E+01  0.000E+00  0.000E+00  0.000E+00  1.04388E+03  1.153E+00  1.200E+01  6.000E-02  1.384E+00
   1   10    7     6     2    2.2474E+01  2.4871E-01   2.2225E+01  0.000E+00  0.000E+00  0.000E+00  1.03933E+03  1.145E+00  1.200E+01  6.000E-02  1.382E+00
   1   11    7     6     3    2.2225E+01  2.4825E-01   2.1977E+01  0.000E+00  0.000E+00  0.000E+00  1.03477E+03  1.137E+00  1.200E+01  6.000E-02  1.379E+00
   1   12    7     6     4    2.1977E+01  2.4779E-01   2.1729E+01  0.000E+00  0.000E+00  0.000E+00  1.03022E+03  1.130E+00  1.200E+01  6.000E-02  1.377E+00
   1   13    7     6     5    2.1729E+01 -2.3310E-02   2.1752E+01  0.000E+00  0.000E+00  0.000E+00  1.02704E+03  1.126E+00  1.200E+01  2.400E-01 -3.238E-02
   1   14    9     7     1    1.5000E+02  1.3356E+00   1.4866E+02  0.000E+00  0.000E+00  0.000E+00  1.03987E+03  2.288E+00  5.529E+01  5.593E-01  7.960E-01
   1   13    8     7     2    1.4866E+02  1.8258E+00   1.4684E+02  0.000E+00  0.000E+00  0.000E+00  1.03478E+03  2.279E+00  5.526E+01  6.148E-01  9.900E-01
   1   13    7     7     3    1.4684E+02  1.4282E+00   1.4541E+02  0.000E+00  0.000E+00  0.000E+00  1.02969E+03  2.271E+00  5.522E+01  5.585E-01  8.525E-01
   1   13    6     8     1    1.6716E+02  8.4536E-01   1.6632E+02  0.000E+00  0.000E+00  0.000E+00  1.02481E+03  2.932E+00  4.251E+01  4.332E-01  6.505E-01
   1   13    5     8     2    1.6632E+02  9.5806E-02   1.6622E+02  0.000E+00  0.000E+00  0.000E+00  1.01855E+03  2.928E+00  4.246E+01  4.327E-01  7.380E-02
   1   13    4     8     3    1.6622E+02 -2.9211E+00   1.6914E+02  0.000E+00  0.000E+00  0.000E+00  1.01231E+03  2.938E+00  4.260E+01  4.341E+00 -2.243E-01
   1   13    3     8     4    1.6914E+02 -4.0289E+00   1.7317E+02  0.000E+00  0.000E+00  0.000E+00  1.00609E+03  2.960E+00  4.293E+01  4.374E+00 -3.070E-01
   1   13    2     8     5    1.7317E+02 -2.9454E+00   1.7612E+02  0.000E+00  0.000E+00  0.000E+00  9.99858E+02  2.983E+00  4.325E+01  4.408E+00 -2.228E-01
   1   13    1     8     6    1.7612E+02 -2.2190E+00   1.7834E+02  0.000E+00  0.000E+00  0.000E+00  9.94874E+02  2.999E+00  4.349E+01  2.659E+00 -2.782E-01
   1    8    6     9     1    3.4695E+00  0.0000E+00   3.4695E+00  0.000E+00  0.000E+00  0.000E+00  1.07993E+03  1.177E+00  4.000E+00  0.000E+00  1.392E+00
   1    8    5     9     2    3.4695E+00  0.0000E+00   3.4695E+00  0.000E+00  0.000E+00  0.000E+00  1.07943E+03  1.177E+00  4.000E+00  0.000E+00  1.392E+00



 UBDSV3 SAVING "           GW ET" ON UNIT  61 AT TIME STEP  9, STRESS PERIOD   5
 UBDSV3 SAVING "    UZF RECHARGE" ON UNIT  61 AT TIME STEP  9, STRESS PERIOD   5
 UBDSV3 SAVING " SURFACE LEAKAGE" ON UNIT  61 AT TIME STEP  9, STRESS PERIOD   5
 UBDSV3 SAVING "       HORT+DUNN" ON UNIT  61 AT TIME STEP  9, STRESS PERIOD   5
 UBDSV3 SAVING "  STORAGE CHANGE" ON UNIT  61 AT TIME STEP  9, STRESS PERIOD   5


UNSATURATED ZONE PACKAGE VOLUMETRIC BUDGET FOR  TIME STEP     9 STRESS PERIOD    5
  ------------------------------------------------------------------------------



     CUMULATIVE VOLUMES      L**3       RATES FOR THIS TIME STEP      L**3/T
     ------------------                 ------------------------

           IN:                                      IN:
           ---                                      ---
        INFILTRATION =    40605965.0789          INFILTRATION =           7.8771

          OUT:                                     OUT:
          ----                                     ----
              UZF ET =    21100402.6174                UZF ET =          10.2345
        UZF RECHARGE =       73224.0000          UZF RECHARGE =       0.0000E+00

            IN - OUT =    19432338.4614              IN - OUT =          -2.3574

          STORAGE:                                 STORAGE:
          --------                                 --------
      STORAGE CHANGE =    19432338.1556        STORAGE CHANGE =          -2.3574

 PERCENT DISCREPANCY IS DIFFERENCE BETWEEN IN-OUT MINUS CHANGE IN STORAGE
 DIVIDED BY THE AVERAGE OF IN AND OUT TIMES 100

 PERCENT DISCREPANCY =           0.00     PERCENT DISCREPANCY =           0.00






 

            AG WELLS      PERIOD    5   STEP   9
 AG WELL      1   LAYER   1   ROW     6   COL     4   RATE     0.00000    
 AG WELL      2   LAYER   1   ROW     6   COL     5   RATE     0.00000    
 AG WELL      3   LAYER   1   ROW     7   COL     4   RATE     0.00000    
 AG WELL      4   LAYER   1   ROW     7   COL     5   RATE     0.00000    
 AG WELL      5   LAYER   1   ROW     8   COL     4   RATE     0.00000    
 AG WELL      6   LAYER   1   ROW     8   COL     5   RATE     0.00000    
 
 

   DIVERSION SEGMENTS     PERIOD    5   STEP   9
 SEGMENT      9   RATE     3.46954    
 
 

        SW IRRIGATION     PERIOD    5   STEP   9
 SEGMENT      9   ROW     6   COL     4   RATE    0.578269    
 SEGMENT      9   ROW     6   COL     5   RATE    0.578269    
 SEGMENT      9   ROW     7   COL     4   RATE    0.578269    
 SEGMENT      9   ROW     7   COL     5   RATE    0.578269    
 SEGMENT      9   ROW     8   COL     4   RATE    0.578269    
 SEGMENT      9   ROW     8   COL     5   RATE    0.578269    
 
 

        GW IRRIGATION     PERIOD    5   STEP   9
 AG WELL      1   ROW     6   COL     4   RATE     0.00000    
 AG WELL      2   ROW     6   COL     5   RATE     0.00000    
 AG WELL      3   ROW     7   COL     4   RATE     0.00000    
 AG WELL      4   ROW     7   COL     5   RATE     0.00000    
 AG WELL      5   ROW     8   COL     4   RATE     0.00000    
 AG WELL      6   ROW     8   COL     5   RATE     0.00000    
 
1
  VOLUMETRIC BUDGET FOR AGRICULTURAL FIELDS AT TIME STEP    9, STRESS PERIOD   5
  ------------------------------------------------------------------------------

     CUMULATIVE VOLUMES      L**3       RATES FOR THIS TIME STEP      L**3/T
     ------------------                 ------------------------

           IN:                                      IN:
           ---                                      ---
               AG WELLS  =           0.0000                 AG WELLS  =           0.0000
      DIVERSION SEGMENTS =     2280004.2500        DIVERSION SEGMENTS =           3.4695
           GW IRRIGATION =           0.0000             GW IRRIGATION =           0.0000
           SW IRRIGATION =           0.0000             SW IRRIGATION =           0.0000
        SYSTEM LOSSES GW =           0.0000          SYSTEM LOSSES GW =           0.0000
        SYSTEM LOSSES SW =           0.0000          SYSTEM LOSSES SW =           0.0000

                TOTAL IN =     2280004.2500                  TOTAL IN =           3.4695

          OUT:                                     OUT:
          ----                                     ----
               AG WELLS  =           0.0000                 AG WELLS  =           0.0000
      DIVERSION SEGMENTS =           0.0000        DIVERSION SEGMENTS =           0.0000
           GW IRRIGATION =           0.0000             GW IRRIGATION =           0.0000
           SW IRRIGATION =     2280050.0000             SW IRRIGATION =           3.4696
        SYSTEM LOSSES GW =           0.0000          SYSTEM LOSSES GW =           0.0000
        SYSTEM LOSSES SW =           0.0000          SYSTEM LOSSES SW =           0.0000

               TOTAL OUT =     2280050.0000                 TOTAL OUT =           3.4696

                IN - OUT =         -45.7500                  IN - OUT =      -6.9141E-05

     PERCENT DISCREPANCY =          -0.00         PERCENT DISCREPANCY =          -0.00



1
  VOLUMETRIC BUDGET FOR ENTIRE MODEL AT END OF TIME STEP    9, STRESS PERIOD   5
  ------------------------------------------------------------------------------

     CUMULATIVE VOLUMES      L**3       RATES FOR THIS TIME STEP      L**3/T
     ------------------                 ------------------------

           IN:                                      IN:
           ---                                      ---
             STORAGE     =     6241059.5000               STORAGE     =           1.8927
       CONSTANT HEAD     =           0.0000         CONSTANT HEAD     =           0.0000
     HEAD DEP BOUNDS     =     2504177.2500       HEAD DEP BOUNDS     =           0.2857
      STREAM LEAKAGE     =   104836864.0000        STREAM LEAKAGE     =          11.3324
        UZF RECHARGE     =       73223.9531          UZF RECHARGE     =           0.0000
               GW ET     =           0.0000                 GW ET     =           0.0000
     SURFACE LEAKAGE     =           0.0000       SURFACE LEAKAGE     =           0.0000
           AG WELLS      =           0.0000             AG WELLS      =           0.0000

                TOTAL IN =   113655328.0000                  TOTAL IN =          13.5108

          OUT:                                     OUT:
          ----                                     ----
             STORAGE     =    18960854.0000               STORAGE     =           1.0712
       CONSTANT HEAD     =           0.0000         CONSTANT HEAD     =           0.0000
     HEAD DEP BOUNDS     =     2548319.5000       HEAD DEP BOUNDS     =           0.2929
      STREAM LEAKAGE     =    92131776.0000        STREAM LEAKAGE     =          12.1377
        UZF RECHARGE     =           0.0000          UZF RECHARGE     =           0.0000
               GW ET     =       17429.8223                 GW ET     =       7.3971E-03
     SURFACE LEAKAGE     =           0.0000       SURFACE LEAKAGE     =           0.0000
           AG WELLS      =           0.0000             AG WELLS      =           0.0000

               TOTAL OUT =   113658384.0000                 TOTAL OUT =          13.5092

                IN - OUT =       -3056.0000                  IN - OUT =       1.5965E-03

     PERCENT DISCREPANCY =          -0.00         PERCENT DISCREPANCY =           0.01






         TIME SUMMARY AT END OF TIME STEP    9 IN STRESS PERIOD    5
                    SECONDS     MINUTES      HOURS       DAYS        YEARS
                    -----------------------------------------------------------
   TIME STEP LENGTH  87667.      1461.1      24.352      1.0147     2.77799E-03
 STRESS PERIOD TIME 7.89000E+05  13150.      219.17      9.1319     2.50019E-02
         TOTAL TIME 8.76540E+06 1.46090E+05  2434.8      101.45     0.27776    
1
 
 SOLVING FOR HEAD 
                                                   Max.-Head-Change                         Max.-Flux-Residual
  Residual-Control   Outer-Iter.   Inner-Iter.     Column Row Layer    Maximum-Head-Change  Column Row Layer    Maximum-Flux-Residual          L2-NORM 
          0                 1           2             2   13     1      -0.5366061507E-02       2   13    1        -0.3018137521E+00      0.5769493029E+00
          0                 2           2             4   13     1      -0.2376000534E-03       4   13    1        -0.1367749202E-01      0.3102927290E-01
          0                 3           2             2   13     1      -0.3075553192E-03       4   13    1        -0.1751188663E-01      0.3564036761E-01
          0                 4           2             4   13     1      -0.1366230810E-03       4   13    1        -0.7826237224E-02      0.1399574756E-01
          0                 5           1             4   13     1      -0.7031920117E-04       4   13    1        -0.4028006861E-02      0.7284152502E-02

    ------------------------------------------------
       NWT REQUIRED            5 OUTER ITERATIONS 
       AND A TOTAL OF          9 INNER ITERATIONS.
    ------------------------------------------------

 OUTPUT CONTROL FOR STRESS PERIOD    5   TIME STEP   10
    PRINT BUDGET
    SAVE BUDGET
 UBDSV1 SAVING "         STORAGE" ON UNIT 102 AT TIME STEP 10, STRESS PERIOD   5
 UBDSV2 SAVING "   CONSTANT HEAD" ON UNIT 102 AT TIME STEP 10, STRESS PERIOD   5
 UBDSV1 SAVING "FLOW RIGHT FACE " ON UNIT 102 AT TIME STEP 10, STRESS PERIOD   5
 UBDSV1 SAVING "FLOW FRONT FACE " ON UNIT 102 AT TIME STEP 10, STRESS PERIOD   5

  HEAD DEP BOUNDS   PERIOD    5   STEP    10
 BOUNDARY      1   LAYER   1   ROW    13   COL     1   RATE   -0.292774    
 BOUNDARY      2   LAYER   1   ROW    14   COL     9   RATE    0.285743    



 STREAM LISTING     PERIOD      5   STEP       10

 LAYER ROW COL. STREAM  RCH.  FLOW INTO     FLOW TO   FLOW OUT OF   OVRLND.     DIRECT     STREAM       STREAM     STREAM     STREAM   STREAMBED  STREAMBED
                SEG.NO.  NO.  STRM. RCH.    AQUIFER    STRM. RCH.    RUNOFF     PRECIP       ET          HEAD       DEPTH      WIDTH   CONDCTNC.   GRADIENT

   1    1    1     1     1    2.1000E+01  2.2592E-01   2.0774E+01  0.000E+00  0.000E+00  0.000E+00  1.09416E+03  1.115E+00  1.220E+01  5.490E-02  1.372E+00
   1    2    2     1     2    2.0774E+01  3.4916E-01   2.0425E+01  0.000E+00  0.000E+00  0.000E+00  1.08917E+03  1.110E+00  1.214E+01  8.495E-02  1.370E+00
   1    3    3     1     3    2.0425E+01  2.9709E-01   2.0128E+01  0.000E+00  0.000E+00  0.000E+00  1.08352E+03  1.105E+00  1.206E+01  7.238E-02  1.368E+00
   1    3    4     1     4    2.0128E+01  2.7299E-01   1.9855E+01  0.000E+00  0.000E+00  0.000E+00  1.07851E+03  1.100E+00  1.200E+01  6.659E-02  1.367E+00
   1    4    5     2     1    1.7855E+01  3.1056E-01   1.7544E+01  0.000E+00  0.000E+00  0.000E+00  1.07292E+03  9.816E-01  1.200E+01  7.800E-02  1.327E+00
   1    5    6     2     2    1.7544E+01  2.3834E-01   1.7306E+01  0.000E+00  0.000E+00  0.000E+00  1.06748E+03  9.724E-01  1.200E+01  6.000E-02  1.324E+00
   1    6    6     2     3    1.7306E+01  2.3787E-01   1.7068E+01  0.000E+00  0.000E+00  0.000E+00  1.06276E+03  9.644E-01  1.200E+01  6.000E-02  1.321E+00
   1    7    6     2     4    1.7068E+01  2.3738E-01   1.6831E+01  0.000E+00  0.000E+00  0.000E+00  1.05803E+03  9.564E-01  1.200E+01  6.000E-02  1.319E+00
   1    8    6     2     5    1.6831E+01  2.3690E-01   1.6594E+01  0.000E+00  0.000E+00  0.000E+00  1.05331E+03  9.483E-01  1.200E+01  6.000E-02  1.316E+00
   1    3    5     3     1    2.0000E+00  2.8252E-01   1.7175E+00  0.000E+00  0.000E+00  0.000E+00  1.07555E+03  1.909E+00  9.636E+00  7.227E-02  1.955E+00
   1    3    6     3     2    1.7175E+00  2.4905E-01   1.4684E+00  0.000E+00  0.000E+00  0.000E+00  1.07264E+03  1.727E+00  8.909E+00  6.682E-02  1.864E+00
   1    3    7     3     3    1.4684E+00  1.9718E-01   1.2712E+00  0.000E+00  0.000E+00  0.000E+00  1.06987E+03  1.555E+00  8.218E+00  5.547E-02  1.777E+00
   1    4    8     3     4    1.2712E+00  2.2567E-01   1.0456E+00  0.000E+00  0.000E+00  0.000E+00  1.06682E+03  1.364E+00  7.455E+00  6.709E-02  1.682E+00
   1    5    8     3     5    1.0456E+00  1.5790E-01   8.8768E-01  0.000E+00  0.000E+00  0.000E+00  1.06362E+03  1.164E+00  6.655E+00  4.991E-02  1.582E+00
   1    6    8     3     6    8.8768E-01  5.5980E-02   8.3170E-01  0.000E+00  0.000E+00  0.000E+00  1.06158E+03  1.036E+00  6.145E+00  1.844E-02  1.518E+00
   1    5   10     4     1    1.0000E+01  9.0919E-02   9.9091E+00  0.000E+00  0.000E+00  0.000E+00  1.07836E+03  6.368E-01  1.000E+01  2.500E-02  1.212E+00
   1    5    9     4     2    9.9091E+00  1.8158E-01   9.7275E+00  0.000E+00  0.000E+00  0.000E+00  1.07154E+03  6.315E-01  1.000E+01  5.000E-02  1.211E+00
   1    6    8     4     3    9.7275E+00  1.2689E-01   9.6006E+00  0.000E+00  0.000E+00  0.000E+00  1.06381E+03  6.256E-01  1.000E+01  3.500E-02  1.209E+00
   1    6    8     5     1    1.0432E+01  2.2686E-01   1.0205E+01  0.000E+00  0.000E+00  0.000E+00  1.05868E+03  6.790E-01  1.542E+01  6.166E-02  1.226E+00
   1    7    7     5     2    1.0205E+01  2.7894E-01   9.9265E+00  0.000E+00  0.000E+00  0.000E+00  1.05417E+03  6.732E-01  1.519E+01  7.594E-02  1.224E+00
   1    8    7     5     3    9.9265E+00  1.9221E-01   9.7343E+00  0.000E+00  0.000E+00  0.000E+00  1.04992E+03  6.676E-01  1.497E+01  5.241E-02  1.223E+00
   1    8    6     5     4    9.7343E+00  1.3577E-01   9.5985E+00  0.000E+00  0.000E+00  0.000E+00  1.04691E+03  6.637E-01  1.482E+01  3.706E-02  1.221E+00
   1    9    6     6     1    2.2720E+01  2.4916E-01   2.2471E+01  0.000E+00  0.000E+00  0.000E+00  1.04388E+03  1.153E+00  1.200E+01  6.000E-02  1.384E+00
   1   10    7     6     2    2.2471E+01  2.4870E-01   2.2222E+01  0.000E+00  0.000E+00  0.000E+00  1.03933E+03  1.145E+00  1.200E+01  6.000E-02  1.382E+00
   1   11    7     6     3    2.2222E+01  2.4824E-01   2.1974E+01  0.000E+00  0.000E+00  0.000E+00  1.03477E+03  1.137E+00  1.200E+01  6.000E-02  1.379E+00
   1   12    7     6     4    2.1974E+01  2.4779E-01   2.1726E+01  0.000E+00  0.000E+00  0.000E+00  1.03022E+03  1.130E+00  1.200E+01  6.000E-02  1.377E+00
   1   13    7     6     5    2.1726E+01 -2.3311E-02   2.1749E+01  0.000E+00  0.000E+00  0.000E+00  1.02704E+03  1.126E+00  1.200E+01  2.400E-01 -3.238E-02
   1   14    9     7     1    1.5000E+02  1.3356E+00   1.4866E+02  0.000E+00  0.000E+00  0.000E+00  1.03987E+03  2.288E+00  5.529E+01  5.593E-01  7.960E-01
   1   13    8     7     2    1.4866E+02  1.8257E+00   1.4684E+02  0.000E+00  0.000E+00  0.000E+00  1.03478E+03  2.279E+00  5.526E+01  6.148E-01  9.899E-01
   1   13    7     7     3    1.4684E+02  1.4282E+00   1.4541E+02  0.000E+00  0.000E+00  0.000E+00  1.02969E+03  2.271E+00  5.522E+01  5.585E-01  8.525E-01
   1   13    6     8     1    1.6716E+02  8.4583E-01   1.6631E+02  0.000E+00  0.000E+00  0.000E+00  1.02481E+03  2.932E+00  4.251E+01  4.332E-01  6.509E-01
   1   13    5     8     2    1.6631E+02  9.6311E-02   1.6622E+02  0.000E+00  0.000E+00  0.000E+00  1.01855E+03  2.928E+00  4.246E+01  4.327E-01  7.419E-02
   1   13    4     8     3    1.6622E+02 -2.8991E+00   1.6912E+02  0.000E+00  0.000E+00  0.000E+00  1.01231E+03  2.938E+00  4.260E+01  4.341E+00 -2.226E-01
   1   13    3     8     4    1.6912E+02 -4.0073E+00   1.7312E+02  0.000E+00  0.000E+00  0.000E+00  1.00609E+03  2.960E+00  4.292E+01  4.374E+00 -3.054E-01
   1   13    2     8     5    1.7312E+02 -2.9202E+00   1.7604E+02  0.000E+00  0.000E+00  0.000E+00  9.99858E+02  2.983E+00  4.325E+01  4.407E+00 -2.209E-01
   1   13    1     8     6    1.7604E+02 -2.2085E+00   1.7825E+02  0.000E+00  0.000E+00  0.000E+00  9.94874E+02  2.999E+00  4.348E+01  2.659E+00 -2.769E-01
   1    8    6     9     1    3.4723E+00  0.0000E+00   3.4723E+00  0.000E+00  0.000E+00  0.000E+00  1.07993E+03  1.178E+00  4.000E+00  0.000E+00  1.393E+00
   1    8    5     9     2    3.4723E+00  0.0000E+00   3.4723E+00  0.000E+00  0.000E+00  0.000E+00  1.07943E+03  1.178E+00  4.000E+00  0.000E+00  1.393E+00



 UBDSV3 SAVING "           GW ET" ON UNIT  61 AT TIME STEP 10, STRESS PERIOD   5
 UBDSV3 SAVING "    UZF RECHARGE" ON UNIT  61 AT TIME STEP 10, STRESS PERIOD   5
 UBDSV3 SAVING " SURFACE LEAKAGE" ON UNIT  61 AT TIME STEP 10, STRESS PERIOD   5
 UBDSV3 SAVING "       HORT+DUNN" ON UNIT  61 AT TIME STEP 10, STRESS PERIOD   5
 UBDSV3 SAVING "  STORAGE CHANGE" ON UNIT  61 AT TIME STEP 10, STRESS PERIOD   5


UNSATURATED ZONE PACKAGE VOLUMETRIC BUDGET FOR  TIME STEP    10 STRESS PERIOD    5
  ------------------------------------------------------------------------------



     CUMULATIVE VOLUMES      L**3       RATES FOR THIS TIME STEP      L**3/T
     ------------------                 ------------------------

           IN:                                      IN:
           ---                                      ---
        INFILTRATION =    41296769.4099          INFILTRATION =           7.8799

          OUT:                                     OUT:
          ----                                     ----
              UZF ET =    21997823.5500                UZF ET =          10.2367
        UZF RECHARGE =       73224.0000          UZF RECHARGE =       0.0000E+00

            IN - OUT =    19225721.8599              IN - OUT =          -2.3568

          STORAGE:                                 STORAGE:
          --------                                 --------
      STORAGE CHANGE =    19225721.5518        STORAGE CHANGE =          -2.3568

 PERCENT DISCREPANCY IS DIFFERENCE BETWEEN IN-OUT MINUS CHANGE IN STORAGE
 DIVIDED BY THE AVERAGE OF IN AND OUT TIMES 100

 PERCENT DISCREPANCY =           0.00     PERCENT DISCREPANCY =           0.00






 

            AG WELLS      PERIOD    5   STEP  10
 AG WELL      1   LAYER   1   ROW     6   COL     4   RATE     0.00000    
 AG WELL      2   LAYER   1   ROW     6   COL     5   RATE     0.00000    
 AG WELL      3   LAYER   1   ROW     7   COL     4   RATE     0.00000    
 AG WELL      4   LAYER   1   ROW     7   COL     5   RATE     0.00000    
 AG WELL      5   LAYER   1   ROW     8   COL     4   RATE     0.00000    
 AG WELL      6   LAYER   1   ROW     8   COL     5   RATE     0.00000    
 
 

   DIVERSION SEGMENTS     PERIOD    5   STEP  10
 SEGMENT      9   RATE     3.47233    
 
 

        SW IRRIGATION     PERIOD    5   STEP  10
 SEGMENT      9   ROW     6   COL     4   RATE    0.578733    
 SEGMENT      9   ROW     6   COL     5   RATE    0.578733    
 SEGMENT      9   ROW     7   COL     4   RATE    0.578733    
 SEGMENT      9   ROW     7   COL     5   RATE    0.578733    
 SEGMENT      9   ROW     8   COL     4   RATE    0.578733    
 SEGMENT      9   ROW     8   COL     5   RATE    0.578733    
 
 

        GW IRRIGATION     PERIOD    5   STEP  10
 AG WELL      1   ROW     6   COL     4   RATE     0.00000    
 AG WELL      2   ROW     6   COL     5   RATE     0.00000    
 AG WELL      3   ROW     7   COL     4   RATE     0.00000    
 AG WELL      4   ROW     7   COL     5   RATE     0.00000    
 AG WELL      5   ROW     8   COL     4   RATE     0.00000    
 AG WELL      6   ROW     8   COL     5   RATE     0.00000    
 
1
  VOLUMETRIC BUDGET FOR AGRICULTURAL FIELDS AT TIME STEP   10, STRESS PERIOD   5
  ------------------------------------------------------------------------------

     CUMULATIVE VOLUMES      L**3       RATES FOR THIS TIME STEP      L**3/T
     ------------------                 ------------------------

           IN:                                      IN:
           ---                                      ---
               AG WELLS  =           0.0000                 AG WELLS  =           0.0000
      DIVERSION SEGMENTS =     2584411.7500        DIVERSION SEGMENTS =           3.4723
           GW IRRIGATION =           0.0000             GW IRRIGATION =           0.0000
           SW IRRIGATION =           0.0000             SW IRRIGATION =           0.0000
        SYSTEM LOSSES GW =           0.0000          SYSTEM LOSSES GW =           0.0000
        SYSTEM LOSSES SW =           0.0000          SYSTEM LOSSES SW =           0.0000

                TOTAL IN =     2584411.7500                  TOTAL IN =           3.4723

          OUT:                                     OUT:
          ----                                     ----
               AG WELLS  =           0.0000                 AG WELLS  =           0.0000
      DIVERSION SEGMENTS =           0.0000        DIVERSION SEGMENTS =           0.0000
           GW IRRIGATION =           0.0000             GW IRRIGATION =           0.0000
           SW IRRIGATION =     2584463.5000             SW IRRIGATION =           3.4724
        SYSTEM LOSSES GW =           0.0000          SYSTEM LOSSES GW =           0.0000
        SYSTEM LOSSES SW =           0.0000          SYSTEM LOSSES SW =           0.0000

               TOTAL OUT =     2584463.5000                 TOTAL OUT =           3.4724

                IN - OUT =         -51.7500                  IN - OUT =      -6.9141E-05

     PERCENT DISCREPANCY =          -0.00         PERCENT DISCREPANCY =          -0.00



1
  VOLUMETRIC BUDGET FOR ENTIRE MODEL AT END OF TIME STEP   10, STRESS PERIOD   5
  ------------------------------------------------------------------------------

     CUMULATIVE VOLUMES      L**3       RATES FOR THIS TIME STEP      L**3/T
     ------------------                 ------------------------

           IN:                                      IN:
           ---                                      ---
             STORAGE     =     6398035.0000               STORAGE     =           1.7906
       CONSTANT HEAD     =           0.0000         CONSTANT HEAD     =           0.0000
     HEAD DEP BOUNDS     =     2529227.5000       HEAD DEP BOUNDS     =           0.2857
      STREAM LEAKAGE     =   105830416.0000        STREAM LEAKAGE     =          11.3333
        UZF RECHARGE     =       73223.9531          UZF RECHARGE     =           0.0000
               GW ET     =           0.0000                 GW ET     =           0.0000
     SURFACE LEAKAGE     =           0.0000       SURFACE LEAKAGE     =           0.0000
           AG WELLS      =           0.0000             AG WELLS      =           0.0000

                TOTAL IN =   114830904.0000                  TOTAL IN =          13.4096

          OUT:                                     OUT:
          ----                                     ----
             STORAGE     =    19053358.0000               STORAGE     =           1.0552
       CONSTANT HEAD     =           0.0000         CONSTANT HEAD     =           0.0000
     HEAD DEP BOUNDS     =     2573986.0000       HEAD DEP BOUNDS     =           0.2928
      STREAM LEAKAGE     =    93188904.0000        STREAM LEAKAGE     =          12.0585
        UZF RECHARGE     =           0.0000          UZF RECHARGE     =           0.0000
               GW ET     =       17567.9297                 GW ET     =       1.5754E-03
     SURFACE LEAKAGE     =           0.0000       SURFACE LEAKAGE     =           0.0000
           AG WELLS      =           0.0000             AG WELLS      =           0.0000

               TOTAL OUT =   114833816.0000                 TOTAL OUT =          13.4080

                IN - OUT =       -2912.0000                  IN - OUT =       1.5717E-03

     PERCENT DISCREPANCY =          -0.00         PERCENT DISCREPANCY =           0.01






         TIME SUMMARY AT END OF TIME STEP   10 IN STRESS PERIOD    5
                    SECONDS     MINUTES      HOURS       DAYS        YEARS
                    -----------------------------------------------------------
   TIME STEP LENGTH  87667.      1461.1      24.352      1.0147     2.77799E-03
 STRESS PERIOD TIME 8.76667E+05  14611.      243.52      10.147     2.77799E-02
         TOTAL TIME 8.85306E+06 1.47551E+05  2459.2      102.47     0.28054    
1
 
 SOLVING FOR HEAD 
                                                   Max.-Head-Change                         Max.-Flux-Residual
  Residual-Control   Outer-Iter.   Inner-Iter.     Column Row Layer    Maximum-Head-Change  Column Row Layer    Maximum-Flux-Residual          L2-NORM 
          0                 1           2             2   13     1      -0.4877012387E-02       2   13    1        -0.2743049009E+00      0.5314759737E+00
          0                 2           2             4   13     1      -0.2904328340E-03       4   13    1        -0.1667964122E-01      0.3510348154E-01
          0                 3           2             7   13     1      -0.3061938917E-03       4   13    1        -0.1729569178E-01      0.3521467223E-01
          0                 4           2             4   13     1      -0.1354344744E-03       4   13    1        -0.7756750206E-02      0.1369524338E-01
          0                 5           1             4   13     1      -0.6974389050E-04       4   13    1        -0.3994443561E-02      0.7157394321E-02

    ------------------------------------------------
       NWT REQUIRED            5 OUTER ITERATIONS 
       AND A TOTAL OF          9 INNER ITERATIONS.
    ------------------------------------------------

 NO OUTPUT CONTROL FOR STRESS PERIOD    5   TIME STEP   11
 
 SOLVING FOR HEAD 
                                                   Max.-Head-Change                         Max.-Flux-Residual
  Residual-Control   Outer-Iter.   Inner-Iter.     Column Row Layer    Maximum-Head-Change  Column Row Layer    Maximum-Flux-Residual          L2-NORM 
          0                 1           2             2   13     1      -0.4425591693E-02       2   13    1        -0.2488527084E+00      0.4922851394E+00
          0                 2           2             4   13     1      -0.3373925262E-03       4   13    1        -0.1940676357E-01      0.3704209113E-01
          0                 3           2             7   13     1      -0.3052315026E-03       7   13    1        -0.1695476550E-01      0.3481533807E-01
          0                 4           2             4   13     1      -0.1379440920E-03       4   13    1        -0.7900722050E-02      0.1393027861E-01
          0                 5           1             4   13     1      -0.7017909384E-04       4   13    1        -0.4019249718E-02      0.7205772449E-02

    ------------------------------------------------
       NWT REQUIRED            5 OUTER ITERATIONS 
       AND A TOTAL OF          9 INNER ITERATIONS.
    ------------------------------------------------

 NO OUTPUT CONTROL FOR STRESS PERIOD    5   TIME STEP   12
 
 SOLVING FOR HEAD 
                                                   Max.-Head-Change                         Max.-Flux-Residual
  Residual-Control   Outer-Iter.   Inner-Iter.     Column Row Layer    Maximum-Head-Change  Column Row Layer    Maximum-Flux-Residual          L2-NORM 
          0                 1           2             2   13     1      -0.4007621804E-02       2   13    1        -0.2253082853E+00      0.4576999440E+00
          0                 2           2             4   13     1      -0.3803152231E-03       4   13    1        -0.2187347837E-01      0.4002150497E-01
          0                 3           2             7   13     1      -0.3052079064E-03       7   13    1        -0.1695352225E-01      0.3458701052E-01
          0                 4           2             4   13     1      -0.1387136357E-03       4   13    1        -0.7944847315E-02      0.1400503981E-01
          0                 5           1             4   13     1      -0.7034866850E-04       4   13    1        -0.4028971517E-02      0.7220728653E-02

    ------------------------------------------------
       NWT REQUIRED            5 OUTER ITERATIONS 
       AND A TOTAL OF          9 INNER ITERATIONS.
    ------------------------------------------------

 NO OUTPUT CONTROL FOR STRESS PERIOD    5   TIME STEP   13
 
 SOLVING FOR HEAD 
                                                   Max.-Head-Change                         Max.-Flux-Residual
  Residual-Control   Outer-Iter.   Inner-Iter.     Column Row Layer    Maximum-Head-Change  Column Row Layer    Maximum-Flux-Residual          L2-NORM 
          0                 1           2             2   13     1      -0.3620925207E-02       2   13    1        -0.2035277069E+00      0.4267321223E+00
          0                 2           2             4   13     1      -0.4178147737E-03       4   13    1        -0.2402792009E-01      0.4281325297E-01
          0                 3           2             7   13     1      -0.3049303957E-03       7   13    1        -0.1693800671E-01      0.3443131713E-01
          0                 4           2             4   13     1      -0.1397160357E-03       4   13    1        -0.8004488375E-02      0.1408877276E-01
          0                 5           1             4   13     1      -0.7033587907E-04       4   13    1        -0.4028921797E-02      0.7221904237E-02

    ------------------------------------------------
       NWT REQUIRED            5 OUTER ITERATIONS 
       AND A TOTAL OF          9 INNER ITERATIONS.
    ------------------------------------------------

 NO OUTPUT CONTROL FOR STRESS PERIOD    5   TIME STEP   14
 
 SOLVING FOR HEAD 
                                                   Max.-Head-Change                         Max.-Flux-Residual
  Residual-Control   Outer-Iter.   Inner-Iter.     Column Row Layer    Maximum-Head-Change  Column Row Layer    Maximum-Flux-Residual          L2-NORM 
          0                 1           2             2   13     1      -0.3263021310E-02       2   13    1        -0.1833708042E+00      0.3991020531E+00
          0                 2           2             4   13     1      -0.4538903659E-03       4   13    1        -0.2609948220E-01      0.4565790185E-01
          0                 3           2             7   13     1      -0.3048880259E-03       7   13    1        -0.1693580540E-01      0.3418800407E-01
          0                 4           2             4   13     1      -0.1402001460E-03       4   13    1        -0.8032234362E-02      0.1413926424E-01
          0                 5           1             4   13     1      -0.7036902066E-04       4   13    1        -0.4030903589E-02      0.7221441987E-02

    ------------------------------------------------
       NWT REQUIRED            5 OUTER ITERATIONS 
       AND A TOTAL OF          9 INNER ITERATIONS.
    ------------------------------------------------

 NO OUTPUT CONTROL FOR STRESS PERIOD    5   TIME STEP   15
 
 SOLVING FOR HEAD 
                                                   Max.-Head-Change                         Max.-Flux-Residual
  Residual-Control   Outer-Iter.   Inner-Iter.     Column Row Layer    Maximum-Head-Change  Column Row Layer    Maximum-Flux-Residual          L2-NORM 
          0                 1           2             2   13     1      -0.2931827209E-02       2   13    1        -0.1647200473E+00      0.3745424351E+00
          0                 2           2             4   13     1      -0.4863842591E-03       4   13    1        -0.2796466941E-01      0.4833996905E-01
          0                 3           2             7   13     1      -0.3040586256E-03       7   13    1        -0.1689007984E-01      0.3376752206E-01
          0                 4           2             4   13     1      -0.1397495763E-03       4   13    1        -0.8006450918E-02      0.1409146174E-01
          0                 5           1             4   13     1      -0.7055867336E-04       4   13    1        -0.4041765256E-02      0.7240400000E-02

    ------------------------------------------------
       NWT REQUIRED            5 OUTER ITERATIONS 
       AND A TOTAL OF          9 INNER ITERATIONS.
    ------------------------------------------------

 NO OUTPUT CONTROL FOR STRESS PERIOD    5   TIME STEP   16
 
 SOLVING FOR HEAD 
                                                   Max.-Head-Change                         Max.-Flux-Residual
  Residual-Control   Outer-Iter.   Inner-Iter.     Column Row Layer    Maximum-Head-Change  Column Row Layer    Maximum-Flux-Residual          L2-NORM 
          0                 1           2             1   13     1      -0.2775825883E-02       1   13    1        -0.1510535803E+00      0.3528292119E+00
          0                 2           2             4   13     1      -0.5130526337E-03       4   13    1        -0.2949513531E-01      0.5062013462E-01
          0                 3           2             7   13     1      -0.3035610407E-03       7   13    1        -0.1686223226E-01      0.3370005181E-01
          0                 4           2             4   13     1      -0.1407027093E-03       4   13    1        -0.8061071862E-02      0.1418923429E-01
          0                 5           1             4   13     1      -0.7068771090E-04       4   13    1        -0.4049142469E-02      0.7254342716E-02

    ------------------------------------------------
       NWT REQUIRED            5 OUTER ITERATIONS 
       AND A TOTAL OF          9 INNER ITERATIONS.
    ------------------------------------------------

 NO OUTPUT CONTROL FOR STRESS PERIOD    5   TIME STEP   17
 
 SOLVING FOR HEAD 
                                                   Max.-Head-Change                         Max.-Flux-Residual
  Residual-Control   Outer-Iter.   Inner-Iter.     Column Row Layer    Maximum-Head-Change  Column Row Layer    Maximum-Flux-Residual          L2-NORM 
          0                 1           2             1   13     1      -0.2625639521E-02       1   13    1        -0.1429307519E+00      0.3337139548E+00
          0                 2           2             4   13     1      -0.5399281883E-03       4   13    1        -0.3103660263E-01      0.5299641619E-01
          0                 3           2             7   13     1      -0.3030650350E-03       7   13    1        -0.1683490369E-01      0.3340621424E-01
          0                 4           2             4   13     1      -0.1416717067E-03       4   13    1        -0.8116576390E-02      0.1428764766E-01
          0                 5           1             4   13     1      -0.7088668674E-04       4   13    1        -0.4060540804E-02      0.7275190475E-02

    ------------------------------------------------
       NWT REQUIRED            5 OUTER ITERATIONS 
       AND A TOTAL OF          9 INNER ITERATIONS.
    ------------------------------------------------

 NO OUTPUT CONTROL FOR STRESS PERIOD    5   TIME STEP   18
 
 SOLVING FOR HEAD 
                                                   Max.-Head-Change                         Max.-Flux-Residual
  Residual-Control   Outer-Iter.   Inner-Iter.     Column Row Layer    Maximum-Head-Change  Column Row Layer    Maximum-Flux-Residual          L2-NORM 
          0                 1           2             1   13     1      -0.2480926333E-02       1   13    1        -0.1351002261E+00      0.3169710398E+00
          0                 2           2             4   13     1      -0.5642762483E-03       4   13    1        -0.3243251186E-01      0.5521297420E-01
          0                 3           2             7   13     1      -0.3028980794E-03       7   13    1        -0.1682573346E-01      0.3322788280E-01
          0                 4           2             4   13     1      -0.1420126481E-03       4   13    1        -0.8136043260E-02      0.1433083010E-01
          0                 5           1             4   13     1      -0.7069619805E-04       4   13    1        -0.4049662294E-02      0.7253280517E-02

    ------------------------------------------------
       NWT REQUIRED            5 OUTER ITERATIONS 
       AND A TOTAL OF          9 INNER ITERATIONS.
    ------------------------------------------------

 NO OUTPUT CONTROL FOR STRESS PERIOD    5   TIME STEP   19
 
 SOLVING FOR HEAD 
                                                   Max.-Head-Change                         Max.-Flux-Residual
  Residual-Control   Outer-Iter.   Inner-Iter.     Column Row Layer    Maximum-Head-Change  Column Row Layer    Maximum-Flux-Residual          L2-NORM 
          0                 1           2             1   13     1      -0.2341549550E-02       1   13    1        -0.1275550174E+00      0.3023974001E+00
          0                 2           2             4   13     1      -0.5863988668E-03       4   13    1        -0.3370036586E-01      0.5727844764E-01
          0                 3           2             7   13     1      -0.3027048916E-03       7   13    1        -0.1681509728E-01      0.3306166276E-01
          0                 4           2             4   13     1      -0.1423454917E-03       4   13    1        -0.8155140850E-02      0.1436200586E-01
          0                 5           1             4   13     1      -0.7073747175E-04       4   13    1        -0.4051997455E-02      0.7260660584E-02

    ------------------------------------------------
       NWT REQUIRED            5 OUTER ITERATIONS 
       AND A TOTAL OF          9 INNER ITERATIONS.
    ------------------------------------------------

 NO OUTPUT CONTROL FOR STRESS PERIOD    5   TIME STEP   20
 
 SOLVING FOR HEAD 
                                                   Max.-Head-Change                         Max.-Flux-Residual
  Residual-Control   Outer-Iter.   Inner-Iter.     Column Row Layer    Maximum-Head-Change  Column Row Layer    Maximum-Flux-Residual          L2-NORM 
          0                 1           2             1   13     1      -0.2207446012E-02       1   13    1        -0.1202922283E+00      0.2897877401E+00
          0                 2           2             4   13     1      -0.6057340283E-03       4   13    1        -0.3480799580E-01      0.5913083497E-01
          0                 3           2             7   13     1      -0.3021859743E-03       7   13    1        -0.1678632518E-01      0.3314099434E-01
          0                 4           2             2   13     1      -0.1394284704E-03       2   13    1        -0.7841327572E-02      0.1408458582E-01
          0                 5           1             4   13     1      -0.7156160014E-04       4   13    1        -0.4099820150E-02      0.7273987954E-02

    ------------------------------------------------
       NWT REQUIRED            5 OUTER ITERATIONS 
       AND A TOTAL OF          9 INNER ITERATIONS.
    ------------------------------------------------

 NO OUTPUT CONTROL FOR STRESS PERIOD    5   TIME STEP   21
 
 SOLVING FOR HEAD 
                                                   Max.-Head-Change                         Max.-Flux-Residual
  Residual-Control   Outer-Iter.   Inner-Iter.     Column Row Layer    Maximum-Head-Change  Column Row Layer    Maximum-Flux-Residual          L2-NORM 
          0                 1           2             1    1     1       0.2137058620E-02       1   13    1        -0.1133033426E+00      0.2789569148E+00
          0                 2           2             4   13     1      -0.6224407153E-03       4   13    1        -0.3576465176E-01      0.6077249748E-01
          0                 3           2             7   13     1      -0.3013329674E-03       7   13    1        -0.1673896287E-01      0.3271249465E-01
          0                 4           2             4   13     1      -0.1430201445E-03       4   13    1        -0.8193775784E-02      0.1443347901E-01
          0                 5           1             4   13     1      -0.7065267597E-04       4   13    1        -0.4047121787E-02      0.7253829910E-02

    ------------------------------------------------
       NWT REQUIRED            5 OUTER ITERATIONS 
       AND A TOTAL OF          9 INNER ITERATIONS.
    ------------------------------------------------

 NO OUTPUT CONTROL FOR STRESS PERIOD    5   TIME STEP   22
 
 SOLVING FOR HEAD 
                                                   Max.-Head-Change                         Max.-Flux-Residual
  Residual-Control   Outer-Iter.   Inner-Iter.     Column Row Layer    Maximum-Head-Change  Column Row Layer    Maximum-Flux-Residual          L2-NORM 
          0                 1           2             1    1     1       0.2134661222E-02       1    1    1         0.1108231889E+00      0.2697253785E+00
          0                 2           2             4   13     1      -0.6396926351E-03       4   13    1        -0.3675207875E-01      0.6249175076E-01
          0                 3           2             7   13     1      -0.3013386203E-03       7   13    1        -0.1673937007E-01      0.3259300091E-01
          0                 4           2             4   13     1      -0.1427578967E-03       4   13    1        -0.8178733561E-02      0.1440921399E-01
          0                 5           1             4   13     1      -0.7092086242E-04       4   13    1        -0.4062473403E-02      0.7282333583E-02

    ------------------------------------------------
       NWT REQUIRED            5 OUTER ITERATIONS 
       AND A TOTAL OF          9 INNER ITERATIONS.
    ------------------------------------------------

 NO OUTPUT CONTROL FOR STRESS PERIOD    5   TIME STEP   23
 
 SOLVING FOR HEAD 
                                                   Max.-Head-Change                         Max.-Flux-Residual
  Residual-Control   Outer-Iter.   Inner-Iter.     Column Row Layer    Maximum-Head-Change  Column Row Layer    Maximum-Flux-Residual          L2-NORM 
          0                 1           2             1    1     1       0.2132271638E-02       1    1    1         0.1106988866E+00      0.2619009496E+00
          0                 2           2             4   13     1      -0.6554702219E-03       4   13    1        -0.3765479532E-01      0.6409325992E-01
          0                 3           2             7   13     1      -0.3004396082E-03       7   13    1        -0.1668978907E-01      0.3223869953E-01
          0                 4           2             4   13     1      -0.1424004385E-03       4   13    1        -0.8158246948E-02      0.1437411085E-01
          0                 5           1             4   13     1      -0.7070418584E-04       4   13    1        -0.4050075097E-02      0.7259584078E-02

    ------------------------------------------------
       NWT REQUIRED            5 OUTER ITERATIONS 
       AND A TOTAL OF          9 INNER ITERATIONS.
    ------------------------------------------------

 NO OUTPUT CONTROL FOR STRESS PERIOD    5   TIME STEP   24
 
 SOLVING FOR HEAD 
                                                   Max.-Head-Change                         Max.-Flux-Residual
  Residual-Control   Outer-Iter.   Inner-Iter.     Column Row Layer    Maximum-Head-Change  Column Row Layer    Maximum-Flux-Residual          L2-NORM 
          0                 1           2             1    1     1       0.2129889819E-02       1    1    1         0.1105749894E+00      0.2553446386E+00
          0                 2           2             4   13     1      -0.6688712497E-03       4   13    1        -0.3842109670E-01      0.6549045596E-01
          0                 3           2             7   13     1      -0.3003255614E-03       7   13    1        -0.1668340458E-01      0.3219727984E-01
          0                 4           2             4   13     1      -0.1428066695E-03       4   13    1        -0.8181486955E-02      0.1441838219E-01
          0                 5           1             4   13     1      -0.7059479378E-04       4   13    1        -0.4043794083E-02      0.7249779446E-02

    ------------------------------------------------
       NWT REQUIRED            5 OUTER ITERATIONS 
       AND A TOTAL OF          9 INNER ITERATIONS.
    ------------------------------------------------

 NO OUTPUT CONTROL FOR STRESS PERIOD    5   TIME STEP   25
 
 SOLVING FOR HEAD 
                                                   Max.-Head-Change                         Max.-Flux-Residual
  Residual-Control   Outer-Iter.   Inner-Iter.     Column Row Layer    Maximum-Head-Change  Column Row Layer    Maximum-Flux-Residual          L2-NORM 
          0                 1           2             1    1     1       0.2127515766E-02       1    1    1         0.1104514949E+00      0.2498774757E+00
          0                 2           2             4   13     1      -0.6797255668E-03       4   13    1        -0.3904133432E-01      0.6665923377E-01
          0                 3           2             7   13     1      -0.2999986790E-03       7   13    1        -0.1666504274E-01      0.3222120836E-01
          0                 4           2             4   13     1      -0.1434476982E-03       4   13    1        -0.8218178871E-02      0.1448742087E-01
          0                 5           1             4   13     1      -0.7064925070E-04       4   13    1        -0.4046921424E-02      0.7255116543E-02

    ------------------------------------------------
       NWT REQUIRED            5 OUTER ITERATIONS 
       AND A TOTAL OF          9 INNER ITERATIONS.
    ------------------------------------------------

 NO OUTPUT CONTROL FOR STRESS PERIOD    5   TIME STEP   26
 
 SOLVING FOR HEAD 
                                                   Max.-Head-Change                         Max.-Flux-Residual
  Residual-Control   Outer-Iter.   Inner-Iter.     Column Row Layer    Maximum-Head-Change  Column Row Layer    Maximum-Flux-Residual          L2-NORM 
          0                 1           2             1    1     1       0.2125127515E-02       1    1    1         0.1103272648E+00      0.2453681445E+00
          0                 2           2             4   13     1      -0.6733384656E-03       4   13    1        -0.3975515038E-01      0.6799060836E-01
          0                 3           2             7   13     1      -0.3000156522E-03       7   13    1        -0.1666609823E-01      0.3269816832E-01
          0                 4           2             4   13     1      -0.1455299560E-03       4   13    1        -0.8575103207E-02      0.1466641612E-01
          0                 5           1             4   13     1      -0.7262713897E-04       4   13    1        -0.4279106832E-02      0.7400885048E-02

    ------------------------------------------------
       NWT REQUIRED            5 OUTER ITERATIONS 
       AND A TOTAL OF          9 INNER ITERATIONS.
    ------------------------------------------------

 NO OUTPUT CONTROL FOR STRESS PERIOD    5   TIME STEP   27
 
 SOLVING FOR HEAD 
                                                   Max.-Head-Change                         Max.-Flux-Residual
  Residual-Control   Outer-Iter.   Inner-Iter.     Column Row Layer    Maximum-Head-Change  Column Row Layer    Maximum-Flux-Residual          L2-NORM 
          0                 1           2             1    1     1       0.2122768935E-02       1    1    1         0.1102045750E+00      0.2416867369E+00
          0                 2           2             4   13     1      -0.6831989198E-03       4   13    1        -0.4033398201E-01      0.6910811102E-01
          0                 3           2             7   13     1      -0.2996042567E-03       7   13    1        -0.1664327056E-01      0.3260936789E-01
          0                 4           2             4   13     1      -0.1456192263E-03       4   13    1        -0.8580291692E-02      0.1468343842E-01
          0                 5           1             4   13     1      -0.7250274163E-04       4   13    1        -0.4271811369E-02      0.7384654527E-02

    ------------------------------------------------
       NWT REQUIRED            5 OUTER ITERATIONS 
       AND A TOTAL OF          9 INNER ITERATIONS.
    ------------------------------------------------

 NO OUTPUT CONTROL FOR STRESS PERIOD    5   TIME STEP   28
 
 SOLVING FOR HEAD 
                                                   Max.-Head-Change                         Max.-Flux-Residual
  Residual-Control   Outer-Iter.   Inner-Iter.     Column Row Layer    Maximum-Head-Change  Column Row Layer    Maximum-Flux-Residual          L2-NORM 
          0                 1           2             4   13     1       0.4475635432E-02       4   13    1         0.2578024646E+00      0.5235361724E+00
          0                 2           2             7   13     1      -0.1343992632E-02       7   13    1        -0.7442883217E-01      0.1335366167E+00
          0                 3           2             2   13     1      -0.2649459023E-03       4   13    1        -0.1553334730E-01      0.2820103218E-01
          0                 4           2             4   13     1      -0.1506573694E-03       4   13    1        -0.8887606623E-02      0.1551231464E-01
          0                 5           1             4   13     1      -0.7194904028E-04       4   13    1        -0.4244055814E-02      0.7428517832E-02

    ------------------------------------------------
       NWT REQUIRED            5 OUTER ITERATIONS 
       AND A TOTAL OF          9 INNER ITERATIONS.
    ------------------------------------------------

 NO OUTPUT CONTROL FOR STRESS PERIOD    5   TIME STEP   29
 
 SOLVING FOR HEAD 
                                                   Max.-Head-Change                         Max.-Flux-Residual
  Residual-Control   Outer-Iter.   Inner-Iter.     Column Row Layer    Maximum-Head-Change  Column Row Layer    Maximum-Flux-Residual          L2-NORM 
          0                 1           2             4   13     1       0.2043791048E-01       4   13    1         0.1180324520E+01      0.2126299071E+01
          0                 2           2             4   13     1      -0.2673956956E-02       4   13    1        -0.1587115257E+00      0.2766533786E+00
          0                 3           2             2   13     1      -0.1797704115E-03       2   13    1        -0.1046158792E-01      0.1913679895E-01
          0                 4           2             4   13     1      -0.1619547012E-03       4   13    1        -0.9605607057E-02      0.1670878773E-01
          0                 5           1             4   13     1      -0.7587006206E-04       4   13    1        -0.4499323008E-02      0.7884598922E-02

    ------------------------------------------------
       NWT REQUIRED            5 OUTER ITERATIONS 
       AND A TOTAL OF          9 INNER ITERATIONS.
    ------------------------------------------------

 NO OUTPUT CONTROL FOR STRESS PERIOD    5   TIME STEP   30



 STREAM LISTING     PERIOD      5   STEP       30

 LAYER ROW COL. STREAM  RCH.  FLOW INTO     FLOW TO   FLOW OUT OF   OVRLND.     DIRECT     STREAM       STREAM     STREAM     STREAM   STREAMBED  STREAMBED
                SEG.NO.  NO.  STRM. RCH.    AQUIFER    STRM. RCH.    RUNOFF     PRECIP       ET          HEAD       DEPTH      WIDTH   CONDCTNC.   GRADIENT

   1    1    1     1     1    7.4250E+01  4.1989E-01   7.3830E+01  0.000E+00  0.000E+00  0.000E+00  1.09474E+03  1.690E+00  1.990E+01  8.954E-02  1.563E+00
   1    2    2     1     2    7.3830E+01  6.5045E-01   7.3180E+01  0.000E+00  0.000E+00  0.000E+00  1.08974E+03  1.684E+00  1.984E+01  1.389E-01  1.561E+00
   1    3    3     1     3    7.3180E+01  5.5490E-01   7.2625E+01  0.000E+00  0.000E+00  0.000E+00  1.08410E+03  1.677E+00  1.977E+01  1.186E-01  1.559E+00
   1    3    4     1     4    7.2625E+01  5.1113E-01   7.2114E+01  0.000E+00  0.000E+00  0.000E+00  1.07908E+03  1.671E+00  1.972E+01  1.094E-01  1.557E+00
   1    4    5     2     1    7.0114E+01  4.0857E-01   6.9705E+01  0.000E+00  0.000E+00  0.000E+00  1.07417E+03  2.238E+00  1.200E+01  7.800E-02  1.746E+00
   1    5    6     2     2    6.9705E+01  3.1387E-01   6.9391E+01  0.000E+00  0.000E+00  0.000E+00  1.06874E+03  2.231E+00  1.200E+01  6.000E-02  1.744E+00
   1    6    6     2     3    6.9391E+01  3.1350E-01   6.9078E+01  0.000E+00  0.000E+00  0.000E+00  1.06402E+03  2.225E+00  1.200E+01  6.000E-02  1.742E+00
   1    7    6     2     4    6.9078E+01  3.1314E-01   6.8765E+01  0.000E+00  0.000E+00  0.000E+00  1.05929E+03  2.219E+00  1.200E+01  6.000E-02  1.740E+00
   1    8    6     2     5    6.8765E+01  3.1278E-01   6.8452E+01  0.000E+00  0.000E+00  0.000E+00  1.05457E+03  2.213E+00  1.200E+01  6.000E-02  1.738E+00
   1    3    5     3     1    2.0000E+00  2.8252E-01   1.7175E+00  0.000E+00  0.000E+00  0.000E+00  1.07555E+03  1.909E+00  9.636E+00  7.227E-02  1.955E+00
   1    3    6     3     2    1.7175E+00  2.4905E-01   1.4684E+00  0.000E+00  0.000E+00  0.000E+00  1.07264E+03  1.727E+00  8.909E+00  6.682E-02  1.864E+00
   1    3    7     3     3    1.4684E+00  1.9718E-01   1.2712E+00  0.000E+00  0.000E+00  0.000E+00  1.06987E+03  1.555E+00  8.218E+00  5.547E-02  1.777E+00
   1    4    8     3     4    1.2712E+00  2.2567E-01   1.0456E+00  0.000E+00  0.000E+00  0.000E+00  1.06682E+03  1.364E+00  7.455E+00  6.709E-02  1.682E+00
   1    5    8     3     5    1.0456E+00  1.5790E-01   8.8768E-01  0.000E+00  0.000E+00  0.000E+00  1.06362E+03  1.164E+00  6.655E+00  4.991E-02  1.582E+00
   1    6    8     3     6    8.8768E-01  5.5980E-02   8.3170E-01  0.000E+00  0.000E+00  0.000E+00  1.06158E+03  1.036E+00  6.145E+00  1.844E-02  1.518E+00
   1    5   10     4     1    1.0000E+01  9.0919E-02   9.9091E+00  0.000E+00  0.000E+00  0.000E+00  1.07836E+03  6.368E-01  1.000E+01  2.500E-02  1.212E+00
   1    5    9     4     2    9.9091E+00  1.8158E-01   9.7275E+00  0.000E+00  0.000E+00  0.000E+00  1.07154E+03  6.315E-01  1.000E+01  5.000E-02  1.211E+00
   1    6    8     4     3    9.7275E+00  1.2689E-01   9.6006E+00  0.000E+00  0.000E+00  0.000E+00  1.06381E+03  6.256E-01  1.000E+01  3.500E-02  1.209E+00
   1    6    8     5     1    1.0432E+01  2.2686E-01   1.0205E+01  0.000E+00  0.000E+00  0.000E+00  1.05868E+03  6.790E-01  1.542E+01  6.166E-02  1.226E+00
   1    7    7     5     2    1.0205E+01  2.7894E-01   9.9265E+00  0.000E+00  0.000E+00  0.000E+00  1.05417E+03  6.732E-01  1.519E+01  7.594E-02  1.224E+00
   1    8    7     5     3    9.9265E+00  1.9221E-01   9.7343E+00  0.000E+00  0.000E+00  0.000E+00  1.04992E+03  6.676E-01  1.497E+01  5.241E-02  1.223E+00
   1    8    6     5     4    9.7343E+00  1.3577E-01   9.5985E+00  0.000E+00  0.000E+00  0.000E+00  1.04691E+03  6.637E-01  1.482E+01  3.706E-02  1.221E+00
   1    9    6     6     1    7.4585E+01  3.2110E-01   7.4263E+01  0.000E+00  0.000E+00  0.000E+00  1.04508E+03  2.352E+00  1.200E+01  6.000E-02  1.784E+00
   1   10    7     6     2    7.4263E+01  3.2074E-01   7.3943E+01  0.000E+00  0.000E+00  0.000E+00  1.04053E+03  2.346E+00  1.200E+01  6.000E-02  1.782E+00
   1   11    7     6     3    7.3943E+01  3.2037E-01   7.3622E+01  0.000E+00  0.000E+00  0.000E+00  1.03598E+03  2.340E+00  1.200E+01  6.000E-02  1.780E+00
   1   12    7     6     4    7.3622E+01  3.2001E-01   7.3302E+01  0.000E+00  0.000E+00  0.000E+00  1.03142E+03  2.333E+00  1.200E+01  6.000E-02  1.778E+00
   1   13    7     6     5    7.3302E+01  2.6578E-02   7.3276E+01  0.000E+00  0.000E+00  0.000E+00  1.02824E+03  2.330E+00  1.200E+01  2.400E-02  3.691E-01
   1   14    9     7     1    1.5000E+02  1.3357E+00   1.4866E+02  0.000E+00  0.000E+00  0.000E+00  1.03987E+03  2.288E+00  5.529E+01  5.593E-01  7.961E-01
   1   13    8     7     2    1.4866E+02  1.8241E+00   1.4684E+02  0.000E+00  0.000E+00  0.000E+00  1.03478E+03  2.279E+00  5.526E+01  6.148E-01  9.890E-01
   1   13    7     7     3    1.4684E+02  1.4286E+00   1.4541E+02  0.000E+00  0.000E+00  0.000E+00  1.02969E+03  2.271E+00  5.522E+01  5.585E-01  8.527E-01
   1   13    6     8     1    2.1869E+02  1.0896E+00   2.1760E+02  0.000E+00  0.000E+00  0.000E+00  1.02512E+03  3.242E+00  4.701E+01  4.791E-01  7.582E-01
   1   13    5     8     2    2.1760E+02  2.6303E-01   2.1733E+02  0.000E+00  0.000E+00  0.000E+00  1.01886E+03  3.238E+00  4.696E+01  4.785E-01  1.832E-01
   1   13    4     8     3    2.1733E+02 -1.6310E+00   2.1897E+02  0.000E+00  0.000E+00  0.000E+00  1.01262E+03  3.242E+00  4.701E+01  4.791E+00 -1.135E-01
   1   13    3     8     4    2.1897E+02 -2.8539E+00   2.2182E+02  0.000E+00  0.000E+00  0.000E+00  1.00638E+03  3.255E+00  4.719E+01  4.809E+00 -1.978E-01
   1   13    2     8     5    2.2182E+02 -1.6422E+00   2.2346E+02  0.000E+00  0.000E+00  0.000E+00  1.00014E+03  3.267E+00  4.737E+01  4.827E+00 -1.134E-01
   1   13    1     8     6    2.2346E+02 -1.4825E+00   2.2494E+02  0.000E+00  0.000E+00  0.000E+00  9.95151E+02  3.276E+00  4.750E+01  2.904E+00 -1.702E-01
   1    8    6     9     1    3.4661E+00  0.0000E+00   3.4661E+00  0.000E+00  0.000E+00  0.000E+00  1.07993E+03  1.177E+00  4.000E+00  0.000E+00  1.392E+00
   1    8    5     9     2    3.4661E+00  0.0000E+00   3.4661E+00  0.000E+00  0.000E+00  0.000E+00  1.07943E+03  1.177E+00  4.000E+00  0.000E+00  1.392E+00





UNSATURATED ZONE PACKAGE VOLUMETRIC BUDGET FOR  TIME STEP    30 STRESS PERIOD    5
  ------------------------------------------------------------------------------



     CUMULATIVE VOLUMES      L**3       RATES FOR THIS TIME STEP      L**3/T
     ------------------                 ------------------------

           IN:                                      IN:
           ---                                      ---
        INFILTRATION =    55110184.5037          INFILTRATION =           7.8736

          OUT:                                     OUT:
          ----                                     ----
              UZF ET =    35676362.8118                UZF ET =           7.8017
        UZF RECHARGE =       73224.0000          UZF RECHARGE =       0.0000E+00

            IN - OUT =    19360597.6919              IN - OUT =       7.1971E-02

          STORAGE:                                 STORAGE:
          --------                                 --------
      STORAGE CHANGE =    19360597.3596        STORAGE CHANGE =       7.1970E-02

 PERCENT DISCREPANCY IS DIFFERENCE BETWEEN IN-OUT MINUS CHANGE IN STORAGE
 DIVIDED BY THE AVERAGE OF IN AND OUT TIMES 100

 PERCENT DISCREPANCY =           0.00     PERCENT DISCREPANCY =           0.00






1
  VOLUMETRIC BUDGET FOR AGRICULTURAL FIELDS AT TIME STEP   30, STRESS PERIOD   5
  ------------------------------------------------------------------------------

     CUMULATIVE VOLUMES      L**3       RATES FOR THIS TIME STEP      L**3/T
     ------------------                 ------------------------

           IN:                                      IN:
           ---                                      ---
               AG WELLS  =           0.0000                 AG WELLS  =           0.0000
      DIVERSION SEGMENTS =     8669890.0000        DIVERSION SEGMENTS =           3.4661
           GW IRRIGATION =           0.0000             GW IRRIGATION =           0.0000
           SW IRRIGATION =           0.0000             SW IRRIGATION =           0.0000
        SYSTEM LOSSES GW =           0.0000          SYSTEM LOSSES GW =           0.0000
        SYSTEM LOSSES SW =           0.0000          SYSTEM LOSSES SW =           0.0000

                TOTAL IN =     8669890.0000                  TOTAL IN =           3.4661

          OUT:                                     OUT:
          ----                                     ----
               AG WELLS  =           0.0000                 AG WELLS  =           0.0000
      DIVERSION SEGMENTS =           0.0000        DIVERSION SEGMENTS =           0.0000
           GW IRRIGATION =           0.0000             GW IRRIGATION =           0.0000
           SW IRRIGATION =     8670062.0000             SW IRRIGATION =           3.4661
        SYSTEM LOSSES GW =           0.0000          SYSTEM LOSSES GW =           0.0000
        SYSTEM LOSSES SW =           0.0000          SYSTEM LOSSES SW =           0.0000

               TOTAL OUT =     8670062.0000                 TOTAL OUT =           3.4661

                IN - OUT =        -172.0000                  IN - OUT =      -6.9141E-05

     PERCENT DISCREPANCY =          -0.00         PERCENT DISCREPANCY =          -0.00



1
  VOLUMETRIC BUDGET FOR ENTIRE MODEL AT END OF TIME STEP   30, STRESS PERIOD   5
  ------------------------------------------------------------------------------

     CUMULATIVE VOLUMES      L**3       RATES FOR THIS TIME STEP      L**3/T
     ------------------                 ------------------------

           IN:                                      IN:
           ---                                      ---
             STORAGE     =     8367309.0000               STORAGE     =           0.3973
       CONSTANT HEAD     =           0.0000         CONSTANT HEAD     =           0.0000
     HEAD DEP BOUNDS     =     3030241.0000       HEAD DEP BOUNDS     =           0.2858
      STREAM LEAKAGE     =   125947400.0000        STREAM LEAKAGE     =          13.4496
        UZF RECHARGE     =       73223.9531          UZF RECHARGE     =           0.0000
               GW ET     =           0.0000                 GW ET     =           0.0000
     SURFACE LEAKAGE     =           0.0000       SURFACE LEAKAGE     =           0.0000
           AG WELLS      =           0.0000             AG WELLS      =           0.0000

                TOTAL IN =   137418160.0000                  TOTAL IN =          14.1327

          OUT:                                     OUT:
          ----                                     ----
             STORAGE     =    21262500.0000               STORAGE     =           6.2308
       CONSTANT HEAD     =           0.0000         CONSTANT HEAD     =           0.0000
     HEAD DEP BOUNDS     =     3085137.5000       HEAD DEP BOUNDS     =           0.2911
      STREAM LEAKAGE     =   113052976.0000        STREAM LEAKAGE     =           7.6096
        UZF RECHARGE     =           0.0000          UZF RECHARGE     =           0.0000
               GW ET     =       17567.9297                 GW ET     =           0.0000
     SURFACE LEAKAGE     =           0.0000       SURFACE LEAKAGE     =           0.0000
           AG WELLS      =           0.0000             AG WELLS      =           0.0000

               TOTAL OUT =   137418176.0000                 TOTAL OUT =          14.1315

                IN - OUT =         -16.0000                  IN - OUT =       1.2369E-03

     PERCENT DISCREPANCY =          -0.00         PERCENT DISCREPANCY =           0.01






         TIME SUMMARY AT END OF TIME STEP   30 IN STRESS PERIOD    5
                    SECONDS     MINUTES      HOURS       DAYS        YEARS
                    -----------------------------------------------------------
   TIME STEP LENGTH  87667.      1461.1      24.352      1.0147     2.77799E-03
 STRESS PERIOD TIME 2.63000E+06  43833.      730.56      30.440     8.33397E-02
         TOTAL TIME 1.06064E+07 1.76773E+05  2946.2      122.76     0.33610    
1
1
                            STRESS PERIOD NO.    6, LENGTH =   2630000.    
                            -----------------------------------------------

                              NUMBER OF TIME STEPS =    30

                               MULTIPLIER FOR DELT =     1.000

                            INITIAL TIME STEP SIZE =   87666.66    

 REUSING NON-PARAMETER GHB CELLS FROM LAST STRESS PERIOD

      2 GHB CELLS

 REUSING STREAM SEGMENT DATA FROM LAST STRESS PERIOD



            AREAL INFILTRATION RATE
 READING ON UNIT   19 WITH FORMAT: (10F4.0)            

            1           2           3           4           5           6           7           8           9          10
 ........................................................................................................................
   1   1.2000E-09   0.000       0.000       0.000       0.000       0.000       0.000       0.000       0.000       0.000    
   2   2.1000E-09  2.0000E-09  8.0000E-10  8.5000E-09   0.000       0.000       0.000       0.000       0.000       0.000    
   3   5.0000E-10  1.1000E-09  8.8000E-09  5.5000E-09   0.000       0.000       0.000       0.000       0.000       0.000    
   4   8.5000E-09  1.1000E-09  1.1000E-09  1.1000E-09  2.0000E-09   0.000       0.000       0.000       0.000       0.000    
   5   8.5000E-09  1.1000E-09  1.1000E-09  1.1000E-09  1.1000E-09   0.000       0.000       0.000       0.000       0.000    
   6   8.5000E-09  5.2000E-09  2.1000E-09  1.1000E-09  1.5000E-09   0.000       0.000       0.000       0.000       0.000    
   7   8.5000E-09  5.2000E-09  2.1000E-09  1.2000E-09  2.0000E-09   0.000       0.000       0.000       0.000       0.000    
   8   5.0000E-10  5.2000E-09  2.1000E-09  1.2000E-09  5.0000E-09   0.000       0.000       0.000       0.000       0.000    
   9   5.0000E-10  5.2000E-09  2.1000E-09  1.2000E-09  5.0000E-09   0.000       0.000       0.000       0.000       0.000    
  10   5.0000E-10  5.2000E-09  2.1000E-09  1.2000E-09  5.8000E-09   0.000       0.000       0.000       0.000       0.000    
  11   1.0000E-10  1.1000E-09  1.1000E-09  1.2000E-09  5.0000E-09   0.000       0.000       0.000       0.000       0.000    
  12   1.1000E-09  1.1000E-09  1.1000E-09  1.1000E-09  2.0000E-09   0.000       0.000       0.000       0.000       0.000    
  13   1.1000E-09  2.2000E-09  2.2000E-09  2.1000E-09  1.0000E-09   0.000       0.000       0.000       0.000       0.000    
  14   2.0000E-10  5.5000E-09  5.5000E-09  5.2000E-09  1.0000E-09   0.000       0.000       0.000       0.000       0.000    
  15    0.000      8.8000E-09  8.8000E-09   0.000       0.000       0.000       0.000       0.000       0.000       0.000    

                  ET RATE =  5.000000E-08

 USING ET EXTINCTION DEPTH FROM PREVIOUS STRESS PERIOD. CURRENT PERIOD IS:       6

 USING EXTINCTION WATER CONTENT FROM PREVIOUS STRESS PERIOD. CURRENT PERIOD IS:       6

 USING AIR ENTRY PRESSURE FROM PREVIOUS STRESS PERIOD. CURRENT PERIOD IS:       6

 USING ROOT PRESSURE HEAD FROM PREVIOUS STRESS PERIOD. CURRENT PERIOD IS:       6

 USING ROOT ACTIVITY FROM PREVIOUS STRESS PERIOD. CURRENT PERIOD IS:       6

 PROCESSING AG STRESS PERIOD DATA

 READING AG STRESS PERIOD DATA

 READING IRRIGATION SEGMENT

 READING IRRIGATION WELL

 READING SUPPLEMENTAL WELL

 END PROCESSING AG STRESS PERIOD DATA OPTIONS
 
 SOLVING FOR HEAD 
                                                   Max.-Head-Change                         Max.-Flux-Residual
  Residual-Control   Outer-Iter.   Inner-Iter.     Column Row Layer    Maximum-Head-Change  Column Row Layer    Maximum-Flux-Residual          L2-NORM 
          0                 1           2             4   13     1       0.1854067967E-01       4   13    1         0.1070201620E+01      0.1977633070E+01
          0                 2           2             4   13     1      -0.3222243635E-02       4   13    1        -0.1911250025E+00      0.3355835329E+00
          0                 3           2             2   13     1      -0.4905413858E-03       4   13    1        -0.2897978291E-01      0.5181104741E-01
          0                 4           2             4   13     1      -0.1686048276E-03       4   13    1        -0.9995786268E-02      0.1747800459E-01
          0                 5           1             4   13     1      -0.4534824501E-04       4   13    1        -0.2688312207E-02      0.4722951603E-02

    ------------------------------------------------
       NWT REQUIRED            5 OUTER ITERATIONS 
       AND A TOTAL OF          9 INNER ITERATIONS.
    ------------------------------------------------

 NO OUTPUT CONTROL FOR STRESS PERIOD    6   TIME STEP    1
 
 SOLVING FOR HEAD 
                                                   Max.-Head-Change                         Max.-Flux-Residual
  Residual-Control   Outer-Iter.   Inner-Iter.     Column Row Layer    Maximum-Head-Change  Column Row Layer    Maximum-Flux-Residual          L2-NORM 
          0                 1           2             4   13     1       0.1695143058E-01       4   13    1         0.9779824831E+00      0.1852452481E+01
          0                 2           2             4   13     1      -0.3113119528E-02       4   13    1        -0.1846172136E+00      0.3297075943E+00
          0                 3           2             4   13     1      -0.4701664600E-03       4   13    1        -0.2785501011E-01      0.5068876647E-01
          0                 4           2             4   13     1      -0.3049870477E-03       4   13    1        -0.1808141468E-01      0.3154457494E-01
          0                 5           2             4   13     1      -0.1466932567E-03       4   13    1        -0.8695433101E-02      0.1524626548E-01
          0                 6           1             4   13     1      -0.7367899721E-04       4   13    1        -0.4367329506E-02      0.7650915071E-02

    ------------------------------------------------
       NWT REQUIRED            6 OUTER ITERATIONS 
       AND A TOTAL OF         11 INNER ITERATIONS.
    ------------------------------------------------

 NO OUTPUT CONTROL FOR STRESS PERIOD    6   TIME STEP    2
 
 SOLVING FOR HEAD 
                                                   Max.-Head-Change                         Max.-Flux-Residual
  Residual-Control   Outer-Iter.   Inner-Iter.     Column Row Layer    Maximum-Head-Change  Column Row Layer    Maximum-Flux-Residual          L2-NORM 
          0                 1           2             2   13     1       0.1563438587E-01       4   13    1         0.8974368576E+00      0.1742462027E+01
          0                 2           2             3   13     1      -0.3083974095E-02       3   13    1        -0.1875641196E+00      0.3330349614E+00
          0                 3           2             4   13     1      -0.5652518799E-03       4   13    1        -0.3359709046E-01      0.5263534267E-01
          0                 4           2             4   13     1      -0.2996237410E-03       4   13    1        -0.1776244363E-01      0.3158021278E-01
          0                 5           2             4   13     1      -0.1491479599E-03       4   13    1        -0.8844178839E-02      0.1547021577E-01
          0                 6           1             4   13     1      -0.7502056906E-04       4   13    1        -0.4448205412E-02      0.7798027068E-02

    ------------------------------------------------
       NWT REQUIRED            6 OUTER ITERATIONS 
       AND A TOTAL OF         11 INNER ITERATIONS.
    ------------------------------------------------

 NO OUTPUT CONTROL FOR STRESS PERIOD    6   TIME STEP    3
 
 SOLVING FOR HEAD 
                                                   Max.-Head-Change                         Max.-Flux-Residual
  Residual-Control   Outer-Iter.   Inner-Iter.     Column Row Layer    Maximum-Head-Change  Column Row Layer    Maximum-Flux-Residual          L2-NORM 
          0                 1           2             2   13     1       0.1460115979E-01       2   13    1         0.8271831795E+00      0.1634815352E+01
          0                 2           2             4   13     1      -0.3173533596E-02       4   13    1        -0.1954784417E+00      0.3201817403E+00
          0                 3           2             2   13     1      -0.4811876543E-03       2   13    1        -0.2800422148E-01      0.5005402652E-01
          0                 4           2             2   13     1      -0.2960675580E-03       4   13    1        -0.1814337720E-01      0.3160943252E-01
          0                 5           2             2   13     1      -0.1449548765E-03       4   13    1        -0.8779629101E-02      0.1540689730E-01
          0                 6           1             2   13     1      -0.7304311427E-04       4   13    1        -0.4432610171E-02      0.7769007155E-02

    ------------------------------------------------
       NWT REQUIRED            6 OUTER ITERATIONS 
       AND A TOTAL OF         11 INNER ITERATIONS.
    ------------------------------------------------

 NO OUTPUT CONTROL FOR STRESS PERIOD    6   TIME STEP    4
 
 SOLVING FOR HEAD 
                                                   Max.-Head-Change                         Max.-Flux-Residual
  Residual-Control   Outer-Iter.   Inner-Iter.     Column Row Layer    Maximum-Head-Change  Column Row Layer    Maximum-Flux-Residual          L2-NORM 
          0                 1           2             2   13     1       0.1365014828E-01       2   13    1         0.7733922739E+00      0.1530046247E+01
          0                 2           2             2   13     1      -0.2696255948E-02       4   13    1        -0.1609632985E+00      0.2935355692E+00
          0                 3           2             2   13     1      -0.4836637647E-03       4   13    1        -0.2923112284E-01      0.5152662184E-01
          0                 4           2             2   13     1      -0.2948841671E-03       4   13    1        -0.1792560069E-01      0.3140517140E-01
          0                 5           2             2   13     1      -0.1445092216E-03       4   13    1        -0.8765631015E-02      0.1537112475E-01
          0                 6           1             2   13     1      -0.7280691736E-04       4   13    1        -0.4417983093E-02      0.7745683987E-02

    ------------------------------------------------
       NWT REQUIRED            6 OUTER ITERATIONS 
       AND A TOTAL OF         11 INNER ITERATIONS.
    ------------------------------------------------

 NO OUTPUT CONTROL FOR STRESS PERIOD    6   TIME STEP    5
 
 SOLVING FOR HEAD 
                                                   Max.-Head-Change                         Max.-Flux-Residual
  Residual-Control   Outer-Iter.   Inner-Iter.     Column Row Layer    Maximum-Head-Change  Column Row Layer    Maximum-Flux-Residual          L2-NORM 
          0                 1           2             2   13     1       0.1277204205E-01       2   13    1         0.7237029659E+00      0.1435303598E+01
          0                 2           2             2   13     1      -0.2612120354E-02       4   13    1        -0.1532304487E+00      0.2831222071E+00
          0                 3           2             2   13     1      -0.4902836799E-03       4   13    1        -0.2985463344E-01      0.5239703643E-01
          0                 4           2             2   13     1      -0.2941347982E-03       4   13    1        -0.1786732159E-01      0.3132326707E-01
          0                 5           2             2   13     1      -0.1437400408E-03       4   13    1        -0.8723185520E-02      0.1529623996E-01
          0                 6           1             2   13     1      -0.7233522045E-04       4   13    1        -0.4390256527E-02      0.7697132116E-02

    ------------------------------------------------
       NWT REQUIRED            6 OUTER ITERATIONS 
       AND A TOTAL OF         11 INNER ITERATIONS.
    ------------------------------------------------

 NO OUTPUT CONTROL FOR STRESS PERIOD    6   TIME STEP    6
 
 SOLVING FOR HEAD 
                                                   Max.-Head-Change                         Max.-Flux-Residual
  Residual-Control   Outer-Iter.   Inner-Iter.     Column Row Layer    Maximum-Head-Change  Column Row Layer    Maximum-Flux-Residual          L2-NORM 
          0                 1           2             2   13     1       0.1196210525E-01       2   13    1         0.6778539514E+00      0.1352693549E+01
          0                 2           2             2   13     1      -0.2534297146E-02       2   13    1        -0.1475369121E+00      0.2738819694E+00
          0                 3           2             2   13     1      -0.4907354858E-03       4   13    1        -0.3005485167E-01      0.5257542273E-01
          0                 4           2             2   13     1      -0.2926197494E-03       4   13    1        -0.1777106533E-01      0.3116582365E-01
          0                 5           2             2   13     1      -0.1437109568E-03       4   13    1        -0.8726148864E-02      0.1529986509E-01
          0                 6           1             2   13     1      -0.7220411408E-04       4   13    1        -0.4383985923E-02      0.7686698498E-02

    ------------------------------------------------
       NWT REQUIRED            6 OUTER ITERATIONS 
       AND A TOTAL OF         11 INNER ITERATIONS.
    ------------------------------------------------

 NO OUTPUT CONTROL FOR STRESS PERIOD    6   TIME STEP    7
 
 SOLVING FOR HEAD 
                                                   Max.-Head-Change                         Max.-Flux-Residual
  Residual-Control   Outer-Iter.   Inner-Iter.     Column Row Layer    Maximum-Head-Change  Column Row Layer    Maximum-Flux-Residual          L2-NORM 
          0                 1           2             2   13     1       0.1121499099E-01       2   13    1         0.6355468574E+00      0.1280466894E+01
          0                 2           2             2   13     1      -0.2459119178E-02       2   13    1        -0.1431631510E+00      0.2653244323E+00
          0                 3           2             2   13     1      -0.4969622794E-03       4   13    1        -0.3057250300E-01      0.5334083608E-01
          0                 4           2             2   13     1      -0.2924801386E-03       4   13    1        -0.1776083949E-01      0.3115647197E-01
          0                 5           2             2   13     1      -0.1433262766E-03       4   13    1        -0.8706511746E-02      0.1526427304E-01
          0                 6           1             2   13     1      -0.7226476875E-04       4   13    1        -0.4391287335E-02      0.7697513782E-02

    ------------------------------------------------
       NWT REQUIRED            6 OUTER ITERATIONS 
       AND A TOTAL OF         11 INNER ITERATIONS.
    ------------------------------------------------

 NO OUTPUT CONTROL FOR STRESS PERIOD    6   TIME STEP    8
 
 SOLVING FOR HEAD 
                                                   Max.-Head-Change                         Max.-Flux-Residual
  Residual-Control   Outer-Iter.   Inner-Iter.     Column Row Layer    Maximum-Head-Change  Column Row Layer    Maximum-Flux-Residual          L2-NORM 
          0                 1           2             2   13     1       0.1052658651E-01       2   13    1         0.5965522822E+00      0.1217262807E+01
          0                 2           2             2   13     1      -0.2394920982E-02       2   13    1        -0.1394268483E+00      0.2582257601E+00
          0                 3           2             4   13     1      -0.5009446648E-03       4   13    1        -0.3083119816E-01      0.5368572501E-01
          0                 4           2             2   13     1      -0.2911950847E-03       4   13    1        -0.1768488895E-01      0.3102758779E-01
          0                 5           2             2   13     1      -0.1428105369E-03       4   13    1        -0.8679763245E-02      0.1521512735E-01
          0                 6           1             2   13     1      -0.7162072435E-04       4   13    1        -0.4354644821E-02      0.7632145462E-02

    ------------------------------------------------
       NWT REQUIRED            6 OUTER ITERATIONS 
       AND A TOTAL OF         11 INNER ITERATIONS.
    ------------------------------------------------

 NO OUTPUT CONTROL FOR STRESS PERIOD    6   TIME STEP    9
 
 SOLVING FOR HEAD 
                                                   Max.-Head-Change                         Max.-Flux-Residual
  Residual-Control   Outer-Iter.   Inner-Iter.     Column Row Layer    Maximum-Head-Change  Column Row Layer    Maximum-Flux-Residual          L2-NORM 
          0                 1           2             2   13     1       0.9892565145E-02       2   13    1         0.5606281687E+00      0.1161814535E+01
          0                 2           2             2   13     1      -0.2334434205E-02       2   13    1        -0.1359055425E+00      0.2517630758E+00
          0                 3           2             4   13     1      -0.5017156144E-03       4   13    1        -0.3087944691E-01      0.5368838711E-01
          0                 4           2             2   13     1      -0.2875442120E-03       4   13    1        -0.1746708259E-01      0.3064843923E-01
          0                 5           2             2   13     1      -0.1418917991E-03       4   13    1        -0.8631896466E-02      0.1512513134E-01
          0                 6           1             2   13     1      -0.7139234086E-04       4   13    1        -0.4341627713E-02      0.7609854462E-02

    ------------------------------------------------
       NWT REQUIRED            6 OUTER ITERATIONS 
       AND A TOTAL OF         11 INNER ITERATIONS.
    ------------------------------------------------

 NO OUTPUT CONTROL FOR STRESS PERIOD    6   TIME STEP   10
 
 SOLVING FOR HEAD 
                                                   Max.-Head-Change                         Max.-Flux-Residual
  Residual-Control   Outer-Iter.   Inner-Iter.     Column Row Layer    Maximum-Head-Change  Column Row Layer    Maximum-Flux-Residual          L2-NORM 
          0                 1           2             2   13     1       0.9308251169E-02       2   13    1         0.5275122209E+00      0.1112999359E+01
          0                 2           2             2   13     1      -0.2277727157E-02       2   13    1        -0.1326034252E+00      0.2458899356E+00
          0                 3           2             4   13     1      -0.5031362947E-03       4   13    1        -0.3096745894E-01      0.5378203967E-01
          0                 4           2             2   13     1      -0.2879492450E-03       4   13    1        -0.1750257850E-01      0.3070563253E-01
          0                 5           2             2   13     1      -0.1421347930E-03       4   13    1        -0.8650831252E-02      0.1515665507E-01
          0                 6           1             2   13     1      -0.7150891231E-04       4   13    1        -0.4351679729E-02      0.7625697330E-02

    ------------------------------------------------
       NWT REQUIRED            6 OUTER ITERATIONS 
       AND A TOTAL OF         11 INNER ITERATIONS.
    ------------------------------------------------

 NO OUTPUT CONTROL FOR STRESS PERIOD    6   TIME STEP   11
 
 SOLVING FOR HEAD 
                                                   Max.-Head-Change                         Max.-Flux-Residual
  Residual-Control   Outer-Iter.   Inner-Iter.     Column Row Layer    Maximum-Head-Change  Column Row Layer    Maximum-Flux-Residual          L2-NORM 
          0                 1           2             2   13     1       0.8770582333E-02       2   13    1         0.4970329771E+00      0.1069976203E+01
          0                 2           2             2   13     1      -0.2225484540E-02       2   13    1        -0.1295605981E+00      0.2406237066E+00
          0                 3           2             4   13     1      -0.5060092243E-03       4   13    1        -0.3114464402E-01      0.5404582581E-01
          0                 4           2             2   13     1      -0.2874494471E-03       4   13    1        -0.1747986627E-01      0.3066202667E-01
          0                 5           2             2   13     1      -0.1419585989E-03       4   13    1        -0.8646006119E-02      0.1514531544E-01
          0                 6           1             2   13     1      -0.7141507422E-04       4   13    1        -0.4349280309E-02      0.7619344211E-02

    ------------------------------------------------
       NWT REQUIRED            6 OUTER ITERATIONS 
       AND A TOTAL OF         11 INNER ITERATIONS.
    ------------------------------------------------

 NO OUTPUT CONTROL FOR STRESS PERIOD    6   TIME STEP   12
 
 SOLVING FOR HEAD 
                                                   Max.-Head-Change                         Max.-Flux-Residual
  Residual-Control   Outer-Iter.   Inner-Iter.     Column Row Layer    Maximum-Head-Change  Column Row Layer    Maximum-Flux-Residual          L2-NORM 
          0                 1           2             2   13     1       0.8275946779E-02       2   13    1         0.4689875506E+00      0.1031949950E+01
          0                 2           2             2   13     1      -0.2177311245E-02       2   13    1        -0.1267541821E+00      0.2358920723E+00
          0                 3           2             4   13     1      -0.5084799622E-03       4   13    1        -0.3129694323E-01      0.5428084927E-01
          0                 4           2             2   13     1      -0.2870470384E-03       4   13    1        -0.1746660742E-01      0.3063254691E-01
          0                 5           2             2   13     1      -0.1418250209E-03       4   13    1        -0.8643281866E-02      0.1513741153E-01
          0                 6           1             2   13     1      -0.7119074750E-04       4   13    1        -0.4337906439E-02      0.7597329038E-02

    ------------------------------------------------
       NWT REQUIRED            6 OUTER ITERATIONS 
       AND A TOTAL OF         11 INNER ITERATIONS.
    ------------------------------------------------

 NO OUTPUT CONTROL FOR STRESS PERIOD    6   TIME STEP   13
 
 SOLVING FOR HEAD 
                                                   Max.-Head-Change                         Max.-Flux-Residual
  Residual-Control   Outer-Iter.   Inner-Iter.     Column Row Layer    Maximum-Head-Change  Column Row Layer    Maximum-Flux-Residual          L2-NORM 
          0                 1           2             2   13     1       0.7821059961E-02       2   13    1         0.4431911874E+00      0.9982476614E+00
          0                 2           2             2   13     1      -0.2132942703E-02       2   13    1        -0.1241689175E+00      0.2316363571E+00
          0                 3           2             4   13     1      -0.5106288504E-03       4   13    1        -0.3142933664E-01      0.5449123551E-01
          0                 4           2             2   13     1      -0.2865064373E-03       4   13    1        -0.1744204761E-01      0.3058521938E-01
          0                 5           2             2   13     1      -0.1416313522E-03       4   13    1        -0.8638175128E-02      0.1512374793E-01
          0                 6           1             2   13     1      -0.7108711456E-04       4   13    1        -0.4334472262E-02      0.7589574156E-02

    ------------------------------------------------
       NWT REQUIRED            6 OUTER ITERATIONS 
       AND A TOTAL OF         11 INNER ITERATIONS.
    ------------------------------------------------

 NO OUTPUT CONTROL FOR STRESS PERIOD    6   TIME STEP   14
 
 SOLVING FOR HEAD 
                                                   Max.-Head-Change                         Max.-Flux-Residual
  Residual-Control   Outer-Iter.   Inner-Iter.     Column Row Layer    Maximum-Head-Change  Column Row Layer    Maximum-Flux-Residual          L2-NORM 
          0                 1           2             2   13     1       0.7402894916E-02       2   13    1         0.4194735908E+00      0.9682965434E+00
          0                 2           2             2   13     1      -0.2092082405E-02       2   13    1        -0.1217877003E+00      0.2278000459E+00
          0                 3           2             4   13     1      -0.5124946435E-03       4   13    1        -0.3154422691E-01      0.5468050159E-01
          0                 4           2             2   13     1      -0.2858002089E-03       4   13    1        -0.1741065530E-01      0.3052212794E-01
          0                 5           2             2   13     1      -0.1414048294E-03       4   13    1        -0.8628525597E-02      0.1510481821E-01
          0                 6           1             2   13     1      -0.7094446961E-04       4   13    1        -0.4329632862E-02      0.7579260920E-02

    ------------------------------------------------
       NWT REQUIRED            6 OUTER ITERATIONS 
       AND A TOTAL OF         11 INNER ITERATIONS.
    ------------------------------------------------

 NO OUTPUT CONTROL FOR STRESS PERIOD    6   TIME STEP   15
 
 SOLVING FOR HEAD 
                                                   Max.-Head-Change                         Max.-Flux-Residual
  Residual-Control   Outer-Iter.   Inner-Iter.     Column Row Layer    Maximum-Head-Change  Column Row Layer    Maximum-Flux-Residual          L2-NORM 
          0                 1           2             2   13     1       0.7018582524E-02       2   13    1         0.3976730988E+00      0.9415996927E+00
          0                 2           2             2   13     1      -0.2054509623E-02       2   13    1        -0.1195977716E+00      0.2243383875E+00
          0                 3           2             4   13     1      -0.5140804050E-03       4   13    1        -0.3164179044E-01      0.5484851074E-01
          0                 4           2             2   13     1      -0.2852573132E-03       4   13    1        -0.1738963121E-01      0.3047729741E-01
          0                 5           2             2   13     1      -0.1407483967E-03       4   13    1        -0.8595346657E-02      0.1504063897E-01
          0                 6           1             2   13     1      -0.7105897801E-04       4   13    1        -0.4336693661E-02      0.7591780918E-02

    ------------------------------------------------
       NWT REQUIRED            6 OUTER ITERATIONS 
       AND A TOTAL OF         11 INNER ITERATIONS.
    ------------------------------------------------

 NO OUTPUT CONTROL FOR STRESS PERIOD    6   TIME STEP   16
 
 SOLVING FOR HEAD 
                                                   Max.-Head-Change                         Max.-Flux-Residual
  Residual-Control   Outer-Iter.   Inner-Iter.     Column Row Layer    Maximum-Head-Change  Column Row Layer    Maximum-Flux-Residual          L2-NORM 
          0                 1           2             2    2     1       0.6701202332E-02       2   13    1         0.3776334172E+00      0.9177211961E+00
          0                 2           2             2   13     1      -0.2019933436E-02       2   13    1        -0.1175822536E+00      0.2212095841E+00
          0                 3           2             4   13     1      -0.5154690369E-03       4   13    1        -0.3172717771E-01      0.5499917336E-01
          0                 4           2             2   13     1      -0.2848203380E-03       4   13    1        -0.1737209485E-01      0.3043999778E-01
          0                 5           2             2   13     1      -0.1405954126E-03       4   13    1        -0.8591320264E-02      0.1502984844E-01
          0                 6           1             2   13     1      -0.7097954979E-04       4   13    1        -0.4335156733E-02      0.7586176200E-02

    ------------------------------------------------
       NWT REQUIRED            6 OUTER ITERATIONS 
       AND A TOTAL OF         11 INNER ITERATIONS.
    ------------------------------------------------

 NO OUTPUT CONTROL FOR STRESS PERIOD    6   TIME STEP   17
 
 SOLVING FOR HEAD 
                                                   Max.-Head-Change                         Max.-Flux-Residual
  Residual-Control   Outer-Iter.   Inner-Iter.     Column Row Layer    Maximum-Head-Change  Column Row Layer    Maximum-Flux-Residual          L2-NORM 
          0                 1           2             2    2     1       0.6666992056E-02       2   13    1         0.3592242462E+00      0.8963177885E+00
          0                 2           2             2   13     1      -0.1988088657E-02       2   13    1        -0.1157257643E+00      0.2183740334E+00
          0                 3           2             4   13     1      -0.5166764858E-03       4   13    1        -0.3180137934E-01      0.5513528405E-01
          0                 4           2             2   13     1      -0.2843924291E-03       4   13    1        -0.1735826037E-01      0.3040748503E-01
          0                 5           2             2   13     1      -0.1404734590E-03       4   13    1        -0.8587525550E-02      0.1502015318E-01
          0                 6           1             2   13     1      -0.7070486347E-04       4   13    1        -0.4321624438E-02      0.7560509574E-02

    ------------------------------------------------
       NWT REQUIRED            6 OUTER ITERATIONS 
       AND A TOTAL OF         11 INNER ITERATIONS.
    ------------------------------------------------

 NO OUTPUT CONTROL FOR STRESS PERIOD    6   TIME STEP   18
 
 SOLVING FOR HEAD 
                                                   Max.-Head-Change                         Max.-Flux-Residual
  Residual-Control   Outer-Iter.   Inner-Iter.     Column Row Layer    Maximum-Head-Change  Column Row Layer    Maximum-Flux-Residual          L2-NORM 
          0                 1           2             2    2     1       0.6633236042E-02       2    2    1         0.3459062720E+00      0.8770712439E+00
          0                 2           2             2   13     1      -0.1958834949E-02       2   13    1        -0.1140202053E+00      0.2158050532E+00
          0                 3           2             4   13     1      -0.5177152808E-03       4   13    1        -0.3186515682E-01      0.5525807398E-01
          0                 4           2             2   13     1      -0.2839934075E-03       4   13    1        -0.1734556414E-01      0.3037595302E-01
          0                 5           2             2   13     1      -0.1403340981E-03       4   13    1        -0.8583489089E-02      0.1501010218E-01
          0                 6           1             2   13     1      -0.7064824257E-04       4   13    1        -0.4320084814E-02      0.7556352594E-02

    ------------------------------------------------
       NWT REQUIRED            6 OUTER ITERATIONS 
       AND A TOTAL OF         11 INNER ITERATIONS.
    ------------------------------------------------

 NO OUTPUT CONTROL FOR STRESS PERIOD    6   TIME STEP   19
 
 SOLVING FOR HEAD 
                                                   Max.-Head-Change                         Max.-Flux-Residual
  Residual-Control   Outer-Iter.   Inner-Iter.     Column Row Layer    Maximum-Head-Change  Column Row Layer    Maximum-Flux-Residual          L2-NORM 
          0                 1           2             2    2     1       0.6599840794E-02       2    2    1         0.3441515079E+00      0.8597152205E+00
          0                 2           2             2   13     1      -0.1931932341E-02       2   13    1        -0.1124516018E+00      0.2134741190E+00
          0                 3           2             4   13     1      -0.5186124485E-03       4   13    1        -0.3192018226E-01      0.5536822882E-01
          0                 4           2             2   13     1      -0.2826330492E-03       4   13    1        -0.1727152962E-01      0.3023980893E-01
          0                 5           2             2   13     1      -0.1406610856E-03       4   13    1        -0.8609842373E-02      0.1505090818E-01
          0                 6           1             2   13     1      -0.7078366738E-04       4   13    1        -0.4328902014E-02      0.7570837705E-02

    ------------------------------------------------
       NWT REQUIRED            6 OUTER ITERATIONS 
       AND A TOTAL OF         11 INNER ITERATIONS.
    ------------------------------------------------

 NO OUTPUT CONTROL FOR STRESS PERIOD    6   TIME STEP   20
 
 SOLVING FOR HEAD 
                                                   Max.-Head-Change                         Max.-Flux-Residual
  Residual-Control   Outer-Iter.   Inner-Iter.     Column Row Layer    Maximum-Head-Change  Column Row Layer    Maximum-Flux-Residual          L2-NORM 
          0                 1           2             2    2     1       0.6566973333E-02       2    2    1         0.3424245495E+00      0.8440287860E+00
          0                 2           2             2   13     1      -0.1907218614E-02       2   13    1        -0.1110105700E+00      0.2113555289E+00
          0                 3           2             4   13     1      -0.5148635319E-03       4   13    1        -0.3168941111E-01      0.5498282515E-01
          0                 4           2             2   13     1      -0.2855294691E-03       4   13    1        -0.1746317493E-01      0.3056279191E-01
          0                 5           2             2   13     1      -0.1409756228E-03       4   13    1        -0.8631066145E-02      0.1508730149E-01
          0                 6           1             2   13     1      -0.7122140645E-04       4   13    1        -0.4360695744E-02      0.7622669665E-02

    ------------------------------------------------
       NWT REQUIRED            6 OUTER ITERATIONS 
       AND A TOTAL OF         11 INNER ITERATIONS.
    ------------------------------------------------

 NO OUTPUT CONTROL FOR STRESS PERIOD    6   TIME STEP   21
 
 SOLVING FOR HEAD 
                                                   Max.-Head-Change                         Max.-Flux-Residual
  Residual-Control   Outer-Iter.   Inner-Iter.     Column Row Layer    Maximum-Head-Change  Column Row Layer    Maximum-Flux-Residual          L2-NORM 
          0                 1           2             2    2     1       0.6534365587E-02       2    2    1         0.3407113052E+00      0.8297862716E+00
          0                 2           2             2   13     1      -0.1884487743E-02       2   13    1        -0.1096851558E+00      0.2094232667E+00
          0                 3           2             4   13     1      -0.5155360825E-03       4   13    1        -0.3173054019E-01      0.5507555742E-01
          0                 4           2             2   13     1      -0.2852236267E-03       4   13    1        -0.1745380482E-01      0.3053828550E-01
          0                 5           2             2   13     1      -0.1408803467E-03       4   13    1        -0.8628597350E-02      0.1508011480E-01
          0                 6           1             2   13     1      -0.7095563995E-04       4   13    1        -0.4345761470E-02      0.7595526338E-02

    ------------------------------------------------
       NWT REQUIRED            6 OUTER ITERATIONS 
       AND A TOTAL OF         11 INNER ITERATIONS.
    ------------------------------------------------

 NO OUTPUT CONTROL FOR STRESS PERIOD    6   TIME STEP   22
 
 SOLVING FOR HEAD 
                                                   Max.-Head-Change                         Max.-Flux-Residual
  Residual-Control   Outer-Iter.   Inner-Iter.     Column Row Layer    Maximum-Head-Change  Column Row Layer    Maximum-Flux-Residual          L2-NORM 
          0                 1           2             2    2     1       0.6502272975E-02       2    2    1         0.3390251783E+00      0.8168473619E+00
          0                 2           2             2   13     1      -0.1863618714E-02       2   13    1        -0.1084682334E+00      0.2076662134E+00
          0                 3           2             4   13     1      -0.5140869663E-03       4   13    1        -0.3164120793E-01      0.5493717044E-01
          0                 4           2             2   13     1      -0.2859636235E-03       4   13    1        -0.1750871649E-01      0.3062559358E-01
          0                 5           2             2   13     1      -0.1411628329E-03       4   13    1        -0.8650692194E-02      0.1511582011E-01
          0                 6           1             2   13     1      -0.7134550545E-04       4   13    1        -0.4370288605E-02      0.7637892321E-02

    ------------------------------------------------
       NWT REQUIRED            6 OUTER ITERATIONS 
       AND A TOTAL OF         11 INNER ITERATIONS.
    ------------------------------------------------

 NO OUTPUT CONTROL FOR STRESS PERIOD    6   TIME STEP   23
 
 SOLVING FOR HEAD 
                                                   Max.-Head-Change                         Max.-Flux-Residual
  Residual-Control   Outer-Iter.   Inner-Iter.     Column Row Layer    Maximum-Head-Change  Column Row Layer    Maximum-Flux-Residual          L2-NORM 
          0                 1           2             2    2     1       0.6470601383E-02       2    2    1         0.3373612101E+00      0.8050445672E+00
          0                 2           2             2   13     1      -0.1844464770E-02       2   13    1        -0.1073513724E+00      0.2060604013E+00
          0                 3           2             4   13     1      -0.5146026015E-03       4   13    1        -0.3167271712E-01      0.5501025467E-01
          0                 4           2             2   13     1      -0.2856912867E-03       4   13    1        -0.1750248997E-01      0.3060720391E-01
          0                 5           2             2   13     1      -0.1410830713E-03       4   13    1        -0.8648390200E-02      0.1510920759E-01
          0                 6           1             2   13     1      -0.7110145265E-04       4   13    1        -0.4357944059E-02      0.7614037605E-02

    ------------------------------------------------
       NWT REQUIRED            6 OUTER ITERATIONS 
       AND A TOTAL OF         11 INNER ITERATIONS.
    ------------------------------------------------

 NO OUTPUT CONTROL FOR STRESS PERIOD    6   TIME STEP   24
 
 SOLVING FOR HEAD 
                                                   Max.-Head-Change                         Max.-Flux-Residual
  Residual-Control   Outer-Iter.   Inner-Iter.     Column Row Layer    Maximum-Head-Change  Column Row Layer    Maximum-Flux-Residual          L2-NORM 
          0                 1           2             2    2     1       0.6439257126E-02       2    2    1         0.3357145203E+00      0.7942547489E+00
          0                 2           2             2   13     1      -0.1826833079E-02       2   13    1        -0.1063232668E+00      0.2045928225E+00
          0                 3           2             4   13     1      -0.5150621189E-03       4   13    1        -0.3170076751E-01      0.5507792102E-01
          0                 4           2             2   13     1      -0.2854433896E-03       4   13    1        -0.1749586252E-01      0.3058886762E-01
          0                 5           2             2   13     1      -0.1410160821E-03       4   13    1        -0.8653086948E-02      0.1510746642E-01
          0                 6           1             2   13     1      -0.7106824746E-04       4   13    1        -0.4349623528E-02      0.7607048330E-02

    ------------------------------------------------
       NWT REQUIRED            6 OUTER ITERATIONS 
       AND A TOTAL OF         11 INNER ITERATIONS.
    ------------------------------------------------

 NO OUTPUT CONTROL FOR STRESS PERIOD    6   TIME STEP   25
 
 SOLVING FOR HEAD 
                                                   Max.-Head-Change                         Max.-Flux-Residual
  Residual-Control   Outer-Iter.   Inner-Iter.     Column Row Layer    Maximum-Head-Change  Column Row Layer    Maximum-Flux-Residual          L2-NORM 
          0                 1           2             2    2     1       0.6408321886E-02       2    2    1         0.3340893534E+00      0.7843744466E+00
          0                 2           2             2   13     1      -0.1810657774E-02       4   13    1        -0.1056582934E+00      0.2032521887E+00
          0                 3           2             4   13     1      -0.5154373841E-03       4   13    1        -0.3172360745E-01      0.5513883040E-01
          0                 4           2             2   13     1      -0.2852226818E-03       4   13    1        -0.1748942306E-01      0.3057042736E-01
          0                 5           2             2   13     1      -0.1409349096E-03       4   13    1        -0.8644980921E-02      0.1509947678E-01
          0                 6           1             2   13     1      -0.7099725125E-04       4   13    1        -0.4355822060E-02      0.7606290112E-02

    ------------------------------------------------
       NWT REQUIRED            6 OUTER ITERATIONS 
       AND A TOTAL OF         11 INNER ITERATIONS.
    ------------------------------------------------

 NO OUTPUT CONTROL FOR STRESS PERIOD    6   TIME STEP   26
 
 SOLVING FOR HEAD 
                                                   Max.-Head-Change                         Max.-Flux-Residual
  Residual-Control   Outer-Iter.   Inner-Iter.     Column Row Layer    Maximum-Head-Change  Column Row Layer    Maximum-Flux-Residual          L2-NORM 
          0                 1           2             2    2     1       0.6377702161E-02       2    2    1         0.3324808422E+00      0.7752894111E+00
          0                 2           2             2   13     1      -0.1795814542E-02       4   13    1        -0.1052429638E+00      0.2020216998E+00
          0                 3           2             4   13     1      -0.5157715413E-03       4   13    1        -0.3174392879E-01      0.5519309438E-01
          0                 4           2             2   13     1      -0.2848185174E-03       4   13    1        -0.1748518499E-01      0.3054954068E-01
          0                 5           2             2   13     1      -0.1410620831E-03       4   13    1        -0.8643727258E-02      0.1509997080E-01
          0                 6           1             2   13     1      -0.7097568255E-04       4   13    1        -0.4353959539E-02      0.7605476381E-02

    ------------------------------------------------
       NWT REQUIRED            6 OUTER ITERATIONS 
       AND A TOTAL OF         11 INNER ITERATIONS.
    ------------------------------------------------

 NO OUTPUT CONTROL FOR STRESS PERIOD    6   TIME STEP   27
 
 SOLVING FOR HEAD 
                                                   Max.-Head-Change                         Max.-Flux-Residual
  Residual-Control   Outer-Iter.   Inner-Iter.     Column Row Layer    Maximum-Head-Change  Column Row Layer    Maximum-Flux-Residual          L2-NORM 
          0                 1           2             2    2     1       0.6347566538E-02       2    2    1         0.3308977932E+00      0.7669300051E+00
          0                 2           2             2   13     1      -0.1782180787E-02       4   13    1        -0.1048793817E+00      0.2008948998E+00
          0                 3           2             4   13     1      -0.5160601054E-03       4   13    1        -0.3176144599E-01      0.5524343887E-01
          0                 4           2             2   13     1      -0.2848089738E-03       4   13    1        -0.1748004338E-01      0.3054099784E-01
          0                 5           2             2   13     1      -0.1408145495E-03       4   13    1        -0.8642514282E-02      0.1508931380E-01
          0                 6           1             2   13     1      -0.7075031755E-04       4   13    1        -0.4342822343E-02      0.7582503465E-02

    ------------------------------------------------
       NWT REQUIRED            6 OUTER ITERATIONS 
       AND A TOTAL OF         11 INNER ITERATIONS.
    ------------------------------------------------

 NO OUTPUT CONTROL FOR STRESS PERIOD    6   TIME STEP   28
 
 SOLVING FOR HEAD 
                                                   Max.-Head-Change                         Max.-Flux-Residual
  Residual-Control   Outer-Iter.   Inner-Iter.     Column Row Layer    Maximum-Head-Change  Column Row Layer    Maximum-Flux-Residual          L2-NORM 
          0                 1           2             2    2     1       0.6317734329E-02       2    2    1         0.3293307410E+00      0.7592069125E+00
          0                 2           2             2   13     1      -0.1769652959E-02       4   13    1        -0.1045586133E+00      0.1998595428E+00
          0                 3           2             4   13     1      -0.5163070122E-03       4   13    1        -0.3177640533E-01      0.5528752839E-01
          0                 4           2             2   13     1      -0.2846513411E-03       4   13    1        -0.1747565184E-01      0.3052813822E-01
          0                 5           2             2   13     1      -0.1407647169E-03       4   13    1        -0.8641378921E-02      0.1508645958E-01
          0                 6           1             2   13     1      -0.7069722789E-04       4   13    1        -0.4341661874E-02      0.7578020066E-02

    ------------------------------------------------
       NWT REQUIRED            6 OUTER ITERATIONS 
       AND A TOTAL OF         11 INNER ITERATIONS.
    ------------------------------------------------

 NO OUTPUT CONTROL FOR STRESS PERIOD    6   TIME STEP   29
 
 SOLVING FOR HEAD 
                                                   Max.-Head-Change                         Max.-Flux-Residual
  Residual-Control   Outer-Iter.   Inner-Iter.     Column Row Layer    Maximum-Head-Change  Column Row Layer    Maximum-Flux-Residual          L2-NORM 
          0                 1           2             2    2     1       0.5802094783E-02       2    2    1         0.3023676563E+00      0.6332988292E+00
          0                 2           2             2   13     1      -0.1584564476E-02       4   13    1        -0.9306051804E-01      0.1796312502E+00
          0                 3           2             4   13     1      -0.5261277368E-03       4   13    1        -0.3236133970E-01      0.5623373102E-01
          0                 4           2             2   13     1      -0.2825412698E-03       4   13    1        -0.1732995724E-01      0.3027114422E-01
          0                 5           2             2   13     1      -0.1401384979E-03       4   13    1        -0.8597319912E-02      0.1500620470E-01
          0                 6           1             2   13     1      -0.7037400879E-04       4   13    1        -0.4315103386E-02      0.7534784734E-02

    ------------------------------------------------
       NWT REQUIRED            6 OUTER ITERATIONS 
       AND A TOTAL OF         11 INNER ITERATIONS.
    ------------------------------------------------

 NO OUTPUT CONTROL FOR STRESS PERIOD    6   TIME STEP   30



 STREAM LISTING     PERIOD      6   STEP       30

 LAYER ROW COL. STREAM  RCH.  FLOW INTO     FLOW TO   FLOW OUT OF   OVRLND.     DIRECT     STREAM       STREAM     STREAM     STREAM   STREAMBED  STREAMBED
                SEG.NO.  NO.  STRM. RCH.    AQUIFER    STRM. RCH.    RUNOFF     PRECIP       ET          HEAD       DEPTH      WIDTH   CONDCTNC.   GRADIENT

   1    1    1     1     1    6.9266E+01  4.0352E-01   6.8863E+01  0.000E+00  0.000E+00  0.000E+00  1.09468E+03  1.634E+00  1.935E+01  8.707E-02  1.545E+00
   1    2    2     1     2    6.8863E+01  6.2503E-01   6.8238E+01  0.000E+00  0.000E+00  0.000E+00  1.08969E+03  1.628E+00  1.929E+01  1.350E-01  1.543E+00
   1    3    3     1     3    6.8238E+01  5.3316E-01   6.7704E+01  0.000E+00  0.000E+00  0.000E+00  1.08404E+03  1.622E+00  1.923E+01  1.154E-01  1.541E+00
   1    3    4     1     4    6.7704E+01  4.9106E-01   6.7213E+01  0.000E+00  0.000E+00  0.000E+00  1.07902E+03  1.616E+00  1.917E+01  1.064E-01  1.539E+00
   1    4    5     2     1    6.5213E+01  4.0112E-01   6.4812E+01  0.000E+00  0.000E+00  0.000E+00  1.07408E+03  2.143E+00  1.200E+01  7.800E-02  1.714E+00
   1    5    6     2     2    6.4812E+01  3.0814E-01   6.4504E+01  0.000E+00  0.000E+00  0.000E+00  1.06865E+03  2.136E+00  1.200E+01  6.000E-02  1.712E+00
   1    6    6     2     3    6.4504E+01  3.0777E-01   6.4196E+01  0.000E+00  0.000E+00  0.000E+00  1.06392E+03  2.129E+00  1.200E+01  6.000E-02  1.710E+00
   1    7    6     2     4    6.4196E+01  3.0740E-01   6.3889E+01  0.000E+00  0.000E+00  0.000E+00  1.05920E+03  2.123E+00  1.200E+01  6.000E-02  1.708E+00
   1    8    6     2     5    6.3889E+01  3.0704E-01   6.3582E+01  0.000E+00  0.000E+00  0.000E+00  1.05448E+03  2.117E+00  1.200E+01  6.000E-02  1.706E+00
   1    3    5     3     1    2.0000E+00  2.8252E-01   1.7175E+00  0.000E+00  0.000E+00  0.000E+00  1.07555E+03  1.909E+00  9.636E+00  7.227E-02  1.955E+00
   1    3    6     3     2    1.7175E+00  2.4905E-01   1.4684E+00  0.000E+00  0.000E+00  0.000E+00  1.07264E+03  1.727E+00  8.909E+00  6.682E-02  1.864E+00
   1    3    7     3     3    1.4684E+00  1.9718E-01   1.2712E+00  0.000E+00  0.000E+00  0.000E+00  1.06987E+03  1.555E+00  8.218E+00  5.547E-02  1.777E+00
   1    4    8     3     4    1.2712E+00  2.2567E-01   1.0456E+00  0.000E+00  0.000E+00  0.000E+00  1.06682E+03  1.364E+00  7.455E+00  6.709E-02  1.682E+00
   1    5    8     3     5    1.0456E+00  1.5790E-01   8.8768E-01  0.000E+00  0.000E+00  0.000E+00  1.06362E+03  1.164E+00  6.655E+00  4.991E-02  1.582E+00
   1    6    8     3     6    8.8768E-01  5.5980E-02   8.3170E-01  0.000E+00  0.000E+00  0.000E+00  1.06158E+03  1.036E+00  6.145E+00  1.844E-02  1.518E+00
   1    5   10     4     1    1.0000E+01  9.0919E-02   9.9091E+00  0.000E+00  0.000E+00  0.000E+00  1.07836E+03  6.368E-01  1.000E+01  2.500E-02  1.212E+00
   1    5    9     4     2    9.9091E+00  1.8158E-01   9.7275E+00  0.000E+00  0.000E+00  0.000E+00  1.07154E+03  6.315E-01  1.000E+01  5.000E-02  1.211E+00
   1    6    8     4     3    9.7275E+00  1.2689E-01   9.6006E+00  0.000E+00  0.000E+00  0.000E+00  1.06381E+03  6.256E-01  1.000E+01  3.500E-02  1.209E+00
   1    6    8     5     1    1.0432E+01  2.2686E-01   1.0205E+01  0.000E+00  0.000E+00  0.000E+00  1.05868E+03  6.790E-01  1.542E+01  6.166E-02  1.226E+00
   1    7    7     5     2    1.0205E+01  2.7894E-01   9.9265E+00  0.000E+00  0.000E+00  0.000E+00  1.05417E+03  6.732E-01  1.519E+01  7.594E-02  1.224E+00
   1    8    7     5     3    9.9265E+00  1.9221E-01   9.7343E+00  0.000E+00  0.000E+00  0.000E+00  1.04992E+03  6.676E-01  1.497E+01  5.241E-02  1.223E+00
   1    8    6     5     4    9.7343E+00  1.3577E-01   9.5985E+00  0.000E+00  0.000E+00  0.000E+00  1.04691E+03  6.637E-01  1.482E+01  3.706E-02  1.221E+00
   1    9    6     6     1    6.5940E+01  3.1107E-01   6.5629E+01  0.000E+00  0.000E+00  0.000E+00  1.04491E+03  2.184E+00  1.200E+01  6.000E-02  1.728E+00
   1   10    7     6     2    6.5629E+01  3.1070E-01   6.5318E+01  0.000E+00  0.000E+00  0.000E+00  1.04036E+03  2.178E+00  1.200E+01  6.000E-02  1.726E+00
   1   11    7     6     3    6.5318E+01  3.1032E-01   6.5008E+01  0.000E+00  0.000E+00  0.000E+00  1.03581E+03  2.172E+00  1.200E+01  6.000E-02  1.724E+00
   1   12    7     6     4    6.5008E+01  3.0995E-01   6.4698E+01  0.000E+00  0.000E+00  0.000E+00  1.03126E+03  2.166E+00  1.200E+01  6.000E-02  1.722E+00
   1   13    7     6     5    6.4698E+01  2.1988E-02   6.4676E+01  0.000E+00  0.000E+00  0.000E+00  1.02807E+03  2.163E+00  1.200E+01  2.400E-02  3.054E-01
   1   14    9     7     1    1.5000E+02  1.3359E+00   1.4866E+02  0.000E+00  0.000E+00  0.000E+00  1.03987E+03  2.288E+00  5.529E+01  5.593E-01  7.962E-01
   1   13    8     7     2    1.4866E+02  1.8213E+00   1.4684E+02  0.000E+00  0.000E+00  0.000E+00  1.03478E+03  2.279E+00  5.526E+01  6.148E-01  9.875E-01
   1   13    7     7     3    1.4684E+02  1.4155E+00   1.4543E+02  0.000E+00  0.000E+00  0.000E+00  1.02969E+03  2.271E+00  5.522E+01  5.585E-01  8.449E-01
   1   13    6     8     1    2.1010E+02  1.0210E+00   2.0908E+02  0.000E+00  0.000E+00  0.000E+00  1.02507E+03  3.194E+00  4.631E+01  4.720E-01  7.211E-01
   1   13    5     8     2    2.0908E+02  2.0883E-01   2.0887E+02  0.000E+00  0.000E+00  0.000E+00  1.01882E+03  3.191E+00  4.626E+01  4.714E-01  1.477E-01
   1   13    4     8     3    2.0887E+02 -2.3794E+00   2.1125E+02  0.000E+00  0.000E+00  0.000E+00  1.01257E+03  3.197E+00  4.635E+01  4.723E+00 -1.679E-01
   1   13    3     8     4    2.1125E+02 -3.5473E+00   2.1480E+02  0.000E+00  0.000E+00  0.000E+00  1.00634E+03  3.214E+00  4.660E+01  4.748E+00 -2.490E-01
   1   13    2     8     5    2.1480E+02 -2.5510E+00   2.1735E+02  0.000E+00  0.000E+00  0.000E+00  1.00011E+03  3.231E+00  4.685E+01  4.774E+00 -1.781E-01
   1   13    1     8     6    2.1735E+02 -1.9199E+00   2.1927E+02  0.000E+00  0.000E+00  0.000E+00  9.95118E+02  3.243E+00  4.703E+01  2.875E+00 -2.226E-01
   1    8    6     9     1    7.2404E+00  0.0000E+00   7.2404E+00  0.000E+00  0.000E+00  0.000E+00  1.08060E+03  1.847E+00  4.000E+00  0.000E+00  1.616E+00
   1    8    5     9     2    7.2404E+00  0.0000E+00   7.2404E+00  0.000E+00  0.000E+00  0.000E+00  1.08010E+03  1.847E+00  4.000E+00  0.000E+00  1.616E+00





UNSATURATED ZONE PACKAGE VOLUMETRIC BUDGET FOR  TIME STEP    30 STRESS PERIOD    6
  ------------------------------------------------------------------------------



     CUMULATIVE VOLUMES      L**3       RATES FOR THIS TIME STEP      L**3/T
     ------------------                 ------------------------

           IN:                                      IN:
           ---                                      ---
        INFILTRATION =    85654171.7712          INFILTRATION =          11.6481

          OUT:                                     OUT:
          ----                                     ----
              UZF ET =    66096164.1731                UZF ET =          11.5656
        UZF RECHARGE =       73224.0000          UZF RECHARGE =       0.0000E+00

            IN - OUT =    19484783.5981              IN - OUT =       8.2448E-02

          STORAGE:                                 STORAGE:
          --------                                 --------
      STORAGE CHANGE =    19484783.1680        STORAGE CHANGE =       8.2448E-02

 PERCENT DISCREPANCY IS DIFFERENCE BETWEEN IN-OUT MINUS CHANGE IN STORAGE
 DIVIDED BY THE AVERAGE OF IN AND OUT TIMES 100

 PERCENT DISCREPANCY =           0.00     PERCENT DISCREPANCY =           0.00






1
  VOLUMETRIC BUDGET FOR AGRICULTURAL FIELDS AT TIME STEP   30, STRESS PERIOD   6
  ------------------------------------------------------------------------------

     CUMULATIVE VOLUMES      L**3       RATES FOR THIS TIME STEP      L**3/T
     ------------------                 ------------------------

           IN:                                      IN:
           ---                                      ---
               AG WELLS  =           0.0000                 AG WELLS  =           0.0000
      DIVERSION SEGMENTS =    27621776.0000        DIVERSION SEGMENTS =           7.2404
           GW IRRIGATION =           0.0000             GW IRRIGATION =           0.0000
           SW IRRIGATION =           0.0000             SW IRRIGATION =           0.0000
        SYSTEM LOSSES GW =           0.0000          SYSTEM LOSSES GW =           0.0000
        SYSTEM LOSSES SW =           0.0000          SYSTEM LOSSES SW =           0.0000

                TOTAL IN =    27621776.0000                  TOTAL IN =           7.2404

          OUT:                                     OUT:
          ----                                     ----
               AG WELLS  =           0.0000                 AG WELLS  =           0.0000
      DIVERSION SEGMENTS =           0.0000        DIVERSION SEGMENTS =           0.0000
           GW IRRIGATION =           0.0000             GW IRRIGATION =           0.0000
           SW IRRIGATION =    27622324.0000             SW IRRIGATION =           7.2406
        SYSTEM LOSSES GW =           0.0000          SYSTEM LOSSES GW =           0.0000
        SYSTEM LOSSES SW =           0.0000          SYSTEM LOSSES SW =           0.0000

               TOTAL OUT =    27622324.0000                 TOTAL OUT =           7.2406

                IN - OUT =        -548.0000                  IN - OUT =      -1.4448E-04

     PERCENT DISCREPANCY =          -0.00         PERCENT DISCREPANCY =          -0.00



1
  VOLUMETRIC BUDGET FOR ENTIRE MODEL AT END OF TIME STEP   30, STRESS PERIOD   6
  ------------------------------------------------------------------------------

     CUMULATIVE VOLUMES      L**3       RATES FOR THIS TIME STEP      L**3/T
     ------------------                 ------------------------

           IN:                                      IN:
           ---                                      ---
             STORAGE     =     9351481.0000               STORAGE     =           0.5011
       CONSTANT HEAD     =           0.0000         CONSTANT HEAD     =           0.0000
     HEAD DEP BOUNDS     =     3781788.7500       HEAD DEP BOUNDS     =           0.2858
      STREAM LEAKAGE     =   161071712.0000        STREAM LEAKAGE     =          13.1521
        UZF RECHARGE     =       73223.9531          UZF RECHARGE     =           0.0000
               GW ET     =           0.0000                 GW ET     =           0.0000
     SURFACE LEAKAGE     =           0.0000       SURFACE LEAKAGE     =           0.0000
           AG WELLS      =           0.0000             AG WELLS      =           0.0000

                TOTAL IN =   174278192.0000                  TOTAL IN =          13.9390

          OUT:                                     OUT:
          ----                                     ----
             STORAGE     =    31718972.0000               STORAGE     =           2.8589
       CONSTANT HEAD     =           0.0000         CONSTANT HEAD     =           0.0000
     HEAD DEP BOUNDS     =     3858720.5000       HEAD DEP BOUNDS     =           0.2959
      STREAM LEAKAGE     =   137972608.0000        STREAM LEAKAGE     =          10.3977
        UZF RECHARGE     =           0.0000          UZF RECHARGE     =           0.0000
               GW ET     =      724793.3750                 GW ET     =           0.3854
     SURFACE LEAKAGE     =           0.0000       SURFACE LEAKAGE     =           0.0000
           AG WELLS      =           0.0000             AG WELLS      =           0.0000

               TOTAL OUT =   174275104.0000                 TOTAL OUT =          13.9378

                IN - OUT =        3088.0000                  IN - OUT =       1.1911E-03

     PERCENT DISCREPANCY =           0.00         PERCENT DISCREPANCY =           0.01






         TIME SUMMARY AT END OF TIME STEP   30 IN STRESS PERIOD    6
                    SECONDS     MINUTES      HOURS       DAYS        YEARS
                    -----------------------------------------------------------
   TIME STEP LENGTH  87667.      1461.1      24.352      1.0147     2.77799E-03
 STRESS PERIOD TIME 2.63000E+06  43833.      730.56      30.440     8.33397E-02
         TOTAL TIME 1.32364E+07 2.20607E+05  3676.8      153.20     0.41944    
1
1
                            STRESS PERIOD NO.    7, LENGTH =   2630000.    
                            -----------------------------------------------

                              NUMBER OF TIME STEPS =    30

                               MULTIPLIER FOR DELT =     1.000

                            INITIAL TIME STEP SIZE =   87666.66    

 REUSING NON-PARAMETER GHB CELLS FROM LAST STRESS PERIOD

      2 GHB CELLS

 REUSING STREAM SEGMENT DATA FROM LAST STRESS PERIOD



            AREAL INFILTRATION RATE
 READING ON UNIT   19 WITH FORMAT: (10F4.0)            

            1           2           3           4           5           6           7           8           9          10
 ........................................................................................................................
   1   1.2000E-09   0.000       0.000       0.000       0.000       0.000       0.000       0.000       0.000       0.000    
   2   2.1000E-09  2.0000E-09  8.0000E-10  8.5000E-09   0.000       0.000       0.000       0.000       0.000       0.000    
   3   5.0000E-10  1.1000E-09  8.8000E-09  5.5000E-09   0.000       0.000       0.000       0.000       0.000       0.000    
   4   8.5000E-09  1.1000E-09  1.1000E-09  1.1000E-09  2.0000E-09   0.000       0.000       0.000       0.000       0.000    
   5   8.5000E-09  1.1000E-09  1.1000E-09  1.1000E-09  1.1000E-09   0.000       0.000       0.000       0.000       0.000    
   6   8.5000E-09  5.2000E-09  2.1000E-09  1.1000E-09  1.5000E-09   0.000       0.000       0.000       0.000       0.000    
   7   8.5000E-09  5.2000E-09  2.1000E-09  1.2000E-09  2.0000E-09   0.000       0.000       0.000       0.000       0.000    
   8   5.0000E-10  5.2000E-09  2.1000E-09  1.2000E-09  5.0000E-09   0.000       0.000       0.000       0.000       0.000    
   9   5.0000E-10  5.2000E-09  2.1000E-09  1.2000E-09  5.0000E-09   0.000       0.000       0.000       0.000       0.000    
  10   5.0000E-10  5.2000E-09  2.1000E-09  1.2000E-09  5.8000E-09   0.000       0.000       0.000       0.000       0.000    
  11   1.0000E-10  1.1000E-09  1.1000E-09  1.2000E-09  5.0000E-09   0.000       0.000       0.000       0.000       0.000    
  12   1.1000E-09  1.1000E-09  1.1000E-09  1.1000E-09  2.0000E-09   0.000       0.000       0.000       0.000       0.000    
  13   1.1000E-09  2.2000E-09  2.2000E-09  2.1000E-09  1.0000E-09   0.000       0.000       0.000       0.000       0.000    
  14   2.0000E-10  5.5000E-09  5.5000E-09  5.2000E-09  1.0000E-09   0.000       0.000       0.000       0.000       0.000    
  15    0.000      8.8000E-09  8.8000E-09   0.000       0.000       0.000       0.000       0.000       0.000       0.000    

                  ET RATE =  1.500000E-07

 USING ET EXTINCTION DEPTH FROM PREVIOUS STRESS PERIOD. CURRENT PERIOD IS:       7

 USING EXTINCTION WATER CONTENT FROM PREVIOUS STRESS PERIOD. CURRENT PERIOD IS:       7

 USING AIR ENTRY PRESSURE FROM PREVIOUS STRESS PERIOD. CURRENT PERIOD IS:       7

 USING ROOT PRESSURE HEAD FROM PREVIOUS STRESS PERIOD. CURRENT PERIOD IS:       7

 USING ROOT ACTIVITY FROM PREVIOUS STRESS PERIOD. CURRENT PERIOD IS:       7

 PROCESSING AG STRESS PERIOD DATA

 READING AG STRESS PERIOD DATA

 READING IRRIGATION SEGMENT

 READING IRRIGATION WELL

 READING SUPPLEMENTAL WELL

 END PROCESSING AG STRESS PERIOD DATA OPTIONS
 
 SOLVING FOR HEAD 
                                                   Max.-Head-Change                         Max.-Flux-Residual
  Residual-Control   Outer-Iter.   Inner-Iter.     Column Row Layer    Maximum-Head-Change  Column Row Layer    Maximum-Flux-Residual          L2-NORM 
          0                 1           2             3   13     1      -0.7476787123E-02       3   13    1        -0.4797423818E+00      0.8404745506E+00
          0                 2           2             2   13     1      -0.5440414203E-02       2   13    1        -0.3076375428E+00      0.5284280492E+00
          0                 3           2             4   13     1      -0.5758657636E-03       4   13    1        -0.3696153640E-01      0.6451543910E-01
          0                 4           2             2   13     1      -0.2533580179E-03       4   13    1        -0.1473811902E-01      0.2600269668E-01
          0                 5           1             2   13     1      -0.1291957114E-03       4   13    1        -0.7739237368E-02      0.1356187946E-01
          0                 6           1             2   13     1      -0.6437770766E-04       4   13    1        -0.3834437553E-02      0.6730653967E-02

    ------------------------------------------------
       NWT REQUIRED            6 OUTER ITERATIONS 
       AND A TOTAL OF         10 INNER ITERATIONS.
    ------------------------------------------------

 NO OUTPUT CONTROL FOR STRESS PERIOD    7   TIME STEP    1
 
 SOLVING FOR HEAD 
                                                   Max.-Head-Change                         Max.-Flux-Residual
  Residual-Control   Outer-Iter.   Inner-Iter.     Column Row Layer    Maximum-Head-Change  Column Row Layer    Maximum-Flux-Residual          L2-NORM 
          0                 1           2             2    2     1       0.5051788624E-02       3   13    1        -0.3210874777E+00      0.6764670216E+00
          0                 2           2             2   13     1      -0.6413940550E-02       2   13    1        -0.3725507011E+00      0.6613930421E+00
          0                 3           2             2   13     1      -0.4727076021E-03       2   13    1        -0.2749510559E-01      0.4153177007E-01
          0                 4           2             2   13     1      -0.2932993853E-03       4   13    1        -0.1816629612E-01      0.3147907177E-01
          0                 5           2             2   13     1      -0.1429638680E-03       2   13    1        -0.8299013121E-02      0.1472049300E-01
          0                 6           1             2   13     1      -0.7163802388E-04       4   13    1        -0.4186905477E-02      0.7445145537E-02

    ------------------------------------------------
       NWT REQUIRED            6 OUTER ITERATIONS 
       AND A TOTAL OF         11 INNER ITERATIONS.
    ------------------------------------------------

 NO OUTPUT CONTROL FOR STRESS PERIOD    7   TIME STEP    2
 
 SOLVING FOR HEAD 
                                                   Max.-Head-Change                         Max.-Flux-Residual
  Residual-Control   Outer-Iter.   Inner-Iter.     Column Row Layer    Maximum-Head-Change  Column Row Layer    Maximum-Flux-Residual          L2-NORM 
          0                 1           2             2    2     1       0.5032200615E-02       2    2    1         0.2621046559E+00      0.5743102557E+00
          0                 2           2             2   13     1      -0.6481089694E-02       4   13    1        -0.3834940496E+00      0.6798819049E+00
          0                 3           2             2   13     1      -0.4737828079E-03       2   13    1        -0.2756553457E-01      0.4060433395E-01
          0                 4           2             2   13     1      -0.2917764894E-03       4   13    1        -0.1822293617E-01      0.3146512803E-01
          0                 5           2             2   13     1      -0.1426675160E-03       2   13    1        -0.8281744585E-02      0.1468431211E-01
          0                 6           1             2   13     1      -0.7161662975E-04       4   13    1        -0.4191736431E-02      0.7448547083E-02

    ------------------------------------------------
       NWT REQUIRED            6 OUTER ITERATIONS 
       AND A TOTAL OF         11 INNER ITERATIONS.
    ------------------------------------------------

 NO OUTPUT CONTROL FOR STRESS PERIOD    7   TIME STEP    3
 
 SOLVING FOR HEAD 
                                                   Max.-Head-Change                         Max.-Flux-Residual
  Residual-Control   Outer-Iter.   Inner-Iter.     Column Row Layer    Maximum-Head-Change  Column Row Layer    Maximum-Flux-Residual          L2-NORM 
          0                 1           2             2    2     1       0.5012766695E-02       2    2    1         0.2610844851E+00      0.5370249827E+00
          0                 2           2             2   13     1      -0.6545698315E-02       4   13    1        -0.3964393657E+00      0.6954725954E+00
          0                 3           2             2   13     1      -0.4778631699E-03       2   13    1        -0.2780863377E-01      0.4023848748E-01
          0                 4           2             2   13     1      -0.2903577597E-03       4   13    1        -0.1824210909E-01      0.3141832470E-01
          0                 5           2             2   13     1      -0.1420315589E-03       2   13    1        -0.8244778362E-02      0.1461084163E-01
          0                 6           1             2   13     1      -0.7118451479E-04       4   13    1        -0.4170110455E-02      0.7406767219E-02

    ------------------------------------------------
       NWT REQUIRED            6 OUTER ITERATIONS 
       AND A TOTAL OF         11 INNER ITERATIONS.
    ------------------------------------------------

 NO OUTPUT CONTROL FOR STRESS PERIOD    7   TIME STEP    4
 
 SOLVING FOR HEAD 
                                                   Max.-Head-Change                         Max.-Flux-Residual
  Residual-Control   Outer-Iter.   Inner-Iter.     Column Row Layer    Maximum-Head-Change  Column Row Layer    Maximum-Flux-Residual          L2-NORM 
          0                 1           2             2    2     1       0.4993657841E-02       2    2    1         0.2600814093E+00      0.5446621111E+00
          0                 2           2             2   13     1      -0.6607449528E-02       4   13    1        -0.4069400390E+00      0.7086153872E+00
          0                 3           2             2   13     1      -0.4770681946E-03       4   13    1        -0.2834279326E-01      0.5045261544E-01
          0                 4           2             2   13     1      -0.2891500038E-03       4   13    1        -0.1785260513E-01      0.3098932466E-01
          0                 5           2             2   13     1      -0.1411806038E-03       4   13    1        -0.8667442526E-02      0.1509285303E-01
          0                 6           1             2   13     1      -0.7082850592E-04       4   13    1        -0.4351379748E-02      0.7573541970E-02

    ------------------------------------------------
       NWT REQUIRED            6 OUTER ITERATIONS 
       AND A TOTAL OF         11 INNER ITERATIONS.
    ------------------------------------------------

 OUTPUT CONTROL FOR STRESS PERIOD    7   TIME STEP    5
    PRINT BUDGET
    SAVE BUDGET
 UBDSV1 SAVING "         STORAGE" ON UNIT 102 AT TIME STEP  5, STRESS PERIOD   7
 UBDSV2 SAVING "   CONSTANT HEAD" ON UNIT 102 AT TIME STEP  5, STRESS PERIOD   7
 UBDSV1 SAVING "FLOW RIGHT FACE " ON UNIT 102 AT TIME STEP  5, STRESS PERIOD   7
 UBDSV1 SAVING "FLOW FRONT FACE " ON UNIT 102 AT TIME STEP  5, STRESS PERIOD   7

  HEAD DEP BOUNDS   PERIOD    7   STEP     5
 BOUNDARY      1   LAYER   1   ROW    13   COL     1   RATE   -0.295286    
 BOUNDARY      2   LAYER   1   ROW    14   COL     9   RATE    0.285764    



 STREAM LISTING     PERIOD      7   STEP        5

 LAYER ROW COL. STREAM  RCH.  FLOW INTO     FLOW TO   FLOW OUT OF   OVRLND.     DIRECT     STREAM       STREAM     STREAM     STREAM   STREAMBED  STREAMBED
                SEG.NO.  NO.  STRM. RCH.    AQUIFER    STRM. RCH.    RUNOFF     PRECIP       ET          HEAD       DEPTH      WIDTH   CONDCTNC.   GRADIENT

   1    1    1     1     1    6.2250E+01  3.7978E-01   6.1870E+01  0.000E+00  0.000E+00  0.000E+00  1.09460E+03  1.553E+00  1.854E+01  8.342E-02  1.518E+00
   1    2    2     1     2    6.1870E+01  5.8817E-01   6.1282E+01  0.000E+00  0.000E+00  0.000E+00  1.08961E+03  1.547E+00  1.848E+01  1.294E-01  1.516E+00
   1    3    3     1     3    6.1282E+01  5.0163E-01   6.0781E+01  0.000E+00  0.000E+00  0.000E+00  1.08396E+03  1.540E+00  1.841E+01  1.105E-01  1.513E+00
   1    3    4     1     4    6.0781E+01  4.6194E-01   6.0319E+01  0.000E+00  0.000E+00  0.000E+00  1.07894E+03  1.534E+00  1.836E+01  1.019E-01  1.511E+00
   1    4    5     2     1    5.8319E+01  3.9026E-01   5.7928E+01  0.000E+00  0.000E+00  0.000E+00  1.07394E+03  2.003E+00  1.200E+01  7.800E-02  1.668E+00
   1    5    6     2     2    5.7928E+01  2.9977E-01   5.7629E+01  0.000E+00  0.000E+00  0.000E+00  1.06851E+03  1.996E+00  1.200E+01  6.000E-02  1.665E+00
   1    6    6     2     3    5.7629E+01  2.9940E-01   5.7329E+01  0.000E+00  0.000E+00  0.000E+00  1.06378E+03  1.990E+00  1.200E+01  6.000E-02  1.663E+00
   1    7    6     2     4    5.7329E+01  2.9903E-01   5.7030E+01  0.000E+00  0.000E+00  0.000E+00  1.05906E+03  1.984E+00  1.200E+01  6.000E-02  1.661E+00
   1    8    6     2     5    5.7030E+01  2.9865E-01   5.6732E+01  0.000E+00  0.000E+00  0.000E+00  1.05434E+03  1.978E+00  1.200E+01  6.000E-02  1.659E+00
   1    3    5     3     1    2.0000E+00  2.8252E-01   1.7175E+00  0.000E+00  0.000E+00  0.000E+00  1.07555E+03  1.909E+00  9.636E+00  7.227E-02  1.955E+00
   1    3    6     3     2    1.7175E+00  2.4905E-01   1.4684E+00  0.000E+00  0.000E+00  0.000E+00  1.07264E+03  1.727E+00  8.909E+00  6.682E-02  1.864E+00
   1    3    7     3     3    1.4684E+00  1.9718E-01   1.2712E+00  0.000E+00  0.000E+00  0.000E+00  1.06987E+03  1.555E+00  8.218E+00  5.547E-02  1.777E+00
   1    4    8     3     4    1.2712E+00  2.2567E-01   1.0456E+00  0.000E+00  0.000E+00  0.000E+00  1.06682E+03  1.364E+00  7.455E+00  6.709E-02  1.682E+00
   1    5    8     3     5    1.0456E+00  1.5790E-01   8.8768E-01  0.000E+00  0.000E+00  0.000E+00  1.06362E+03  1.164E+00  6.655E+00  4.991E-02  1.582E+00
   1    6    8     3     6    8.8768E-01  5.5980E-02   8.3170E-01  0.000E+00  0.000E+00  0.000E+00  1.06158E+03  1.036E+00  6.145E+00  1.844E-02  1.518E+00
   1    5   10     4     1    1.0000E+01  9.0919E-02   9.9091E+00  0.000E+00  0.000E+00  0.000E+00  1.07836E+03  6.368E-01  1.000E+01  2.500E-02  1.212E+00
   1    5    9     4     2    9.9091E+00  1.8158E-01   9.7275E+00  0.000E+00  0.000E+00  0.000E+00  1.07154E+03  6.315E-01  1.000E+01  5.000E-02  1.211E+00
   1    6    8     4     3    9.7275E+00  1.2689E-01   9.6006E+00  0.000E+00  0.000E+00  0.000E+00  1.06381E+03  6.256E-01  1.000E+01  3.500E-02  1.209E+00
   1    6    8     5     1    1.0432E+01  2.2686E-01   1.0205E+01  0.000E+00  0.000E+00  0.000E+00  1.05868E+03  6.790E-01  1.542E+01  6.166E-02  1.226E+00
   1    7    7     5     2    1.0205E+01  2.7894E-01   9.9265E+00  0.000E+00  0.000E+00  0.000E+00  1.05417E+03  6.732E-01  1.519E+01  7.594E-02  1.224E+00
   1    8    7     5     3    9.9265E+00  1.9221E-01   9.7343E+00  0.000E+00  0.000E+00  0.000E+00  1.04992E+03  6.676E-01  1.497E+01  5.241E-02  1.223E+00
   1    8    6     5     4    9.7343E+00  1.3577E-01   9.5985E+00  0.000E+00  0.000E+00  0.000E+00  1.04691E+03  6.637E-01  1.482E+01  3.706E-02  1.221E+00
   1    9    6     6     1    4.4125E+01  2.8298E-01   4.3842E+01  0.000E+00  0.000E+00  0.000E+00  1.04444E+03  1.716E+00  1.200E+01  6.000E-02  1.572E+00
   1   10    7     6     2    4.3842E+01  2.8259E-01   4.3560E+01  0.000E+00  0.000E+00  0.000E+00  1.03989E+03  1.710E+00  1.200E+01  6.000E-02  1.570E+00
   1   11    7     6     3    4.3560E+01  2.8219E-01   4.3277E+01  0.000E+00  0.000E+00  0.000E+00  1.03534E+03  1.703E+00  1.200E+01  6.000E-02  1.568E+00
   1   12    7     6     4    4.3277E+01  2.8179E-01   4.2996E+01  0.000E+00  0.000E+00  0.000E+00  1.03079E+03  1.697E+00  1.200E+01  6.000E-02  1.566E+00
   1   13    7     6     5    4.2996E+01  1.0665E-02   4.2985E+01  0.000E+00  0.000E+00  0.000E+00  1.02760E+03  1.693E+00  1.200E+01  2.400E-02  1.481E-01
   1   14    9     7     1    1.5000E+02  1.3359E+00   1.4866E+02  0.000E+00  0.000E+00  0.000E+00  1.03987E+03  2.288E+00  5.529E+01  5.593E-01  7.962E-01
   1   13    8     7     2    1.4866E+02  1.8207E+00   1.4684E+02  0.000E+00  0.000E+00  0.000E+00  1.03478E+03  2.279E+00  5.526E+01  6.148E-01  9.872E-01
   1   13    7     7     3    1.4684E+02  1.4142E+00   1.4543E+02  0.000E+00  0.000E+00  0.000E+00  1.02969E+03  2.271E+00  5.522E+01  5.585E-01  8.441E-01
   1   13    6     8     1    1.8841E+02  9.2326E-01   1.8749E+02  0.000E+00  0.000E+00  0.000E+00  1.02494E+03  3.066E+00  4.446E+01  4.531E-01  6.793E-01
   1   13    5     8     2    1.8749E+02  1.4337E-01   1.8735E+02  0.000E+00  0.000E+00  0.000E+00  1.01869E+03  3.063E+00  4.441E+01  4.526E-01  1.056E-01
   1   13    4     8     3    1.8735E+02 -2.6574E+00   1.9000E+02  0.000E+00  0.000E+00  0.000E+00  1.01245E+03  3.071E+00  4.452E+01  4.537E+00 -1.952E-01
   1   13    3     8     4    1.9000E+02 -3.7701E+00   1.9378E+02  0.000E+00  0.000E+00  0.000E+00  1.00622E+03  3.090E+00  4.481E+01  4.566E+00 -2.752E-01
   1   13    2     8     5    1.9378E+02 -2.8605E+00   1.9664E+02  0.000E+00  0.000E+00  0.000E+00  9.99985E+02  3.110E+00  4.509E+01  4.595E+00 -2.075E-01
   1   13    1     8     6    1.9664E+02 -2.1355E+00   1.9877E+02  0.000E+00  0.000E+00  0.000E+00  9.95000E+02  3.125E+00  4.531E+01  2.770E+00 -2.570E-01
   1    8    6     9     1    2.2205E+01  0.0000E+00   2.2205E+01  0.000E+00  0.000E+00  0.000E+00  1.08240E+03  3.646E+00  4.000E+00  0.000E+00  2.215E+00
   1    8    5     9     2    2.2205E+01  0.0000E+00   2.2205E+01  0.000E+00  0.000E+00  0.000E+00  1.08190E+03  3.646E+00  4.000E+00  0.000E+00  2.215E+00



 UBDSV3 SAVING "           GW ET" ON UNIT  61 AT TIME STEP  5, STRESS PERIOD   7
 UBDSV3 SAVING "    UZF RECHARGE" ON UNIT  61 AT TIME STEP  5, STRESS PERIOD   7
 UBDSV3 SAVING " SURFACE LEAKAGE" ON UNIT  61 AT TIME STEP  5, STRESS PERIOD   7
 UBDSV3 SAVING "       HORT+DUNN" ON UNIT  61 AT TIME STEP  5, STRESS PERIOD   7
 UBDSV3 SAVING "  STORAGE CHANGE" ON UNIT  61 AT TIME STEP  5, STRESS PERIOD   7


UNSATURATED ZONE PACKAGE VOLUMETRIC BUDGET FOR  TIME STEP     5 STRESS PERIOD    7
  ------------------------------------------------------------------------------



     CUMULATIVE VOLUMES      L**3       RATES FOR THIS TIME STEP      L**3/T
     ------------------                 ------------------------

           IN:                                      IN:
           ---                                      ---
        INFILTRATION =    97075989.3679          INFILTRATION =          26.6129

          OUT:                                     OUT:
          ----                                     ----
              UZF ET =    77733417.6760                UZF ET =          26.5508
        UZF RECHARGE =       73224.0000          UZF RECHARGE =       0.0000E+00

            IN - OUT =    19269347.6919              IN - OUT =       6.2136E-02

          STORAGE:                                 STORAGE:
          --------                                 --------
      STORAGE CHANGE =    19269347.2710        STORAGE CHANGE =       6.2136E-02

 PERCENT DISCREPANCY IS DIFFERENCE BETWEEN IN-OUT MINUS CHANGE IN STORAGE
 DIVIDED BY THE AVERAGE OF IN AND OUT TIMES 100

 PERCENT DISCREPANCY =           0.00     PERCENT DISCREPANCY =           0.00






 

            AG WELLS      PERIOD    7   STEP   5
 AG WELL      1   LAYER   1   ROW     6   COL     4   RATE     0.00000    
 AG WELL      2   LAYER   1   ROW     6   COL     5   RATE     0.00000    
 AG WELL      3   LAYER   1   ROW     7   COL     4   RATE     0.00000    
 AG WELL      4   LAYER   1   ROW     7   COL     5   RATE     0.00000    
 AG WELL      5   LAYER   1   ROW     8   COL     4   RATE     0.00000    
 AG WELL      6   LAYER   1   ROW     8   COL     5   RATE     0.00000    
 
 

   DIVERSION SEGMENTS     PERIOD    7   STEP   5
 SEGMENT      9   RATE     22.2050    
 
 

        SW IRRIGATION     PERIOD    7   STEP   5
 SEGMENT      9   ROW     6   COL     4   RATE     3.70090    
 SEGMENT      9   ROW     6   COL     5   RATE     3.70090    
 SEGMENT      9   ROW     7   COL     4   RATE     3.70090    
 SEGMENT      9   ROW     7   COL     5   RATE     3.70090    
 SEGMENT      9   ROW     8   COL     4   RATE     3.70090    
 SEGMENT      9   ROW     8   COL     5   RATE     3.70090    
 
 

        GW IRRIGATION     PERIOD    7   STEP   5
 AG WELL      1   ROW     6   COL     4   RATE     0.00000    
 AG WELL      2   ROW     6   COL     5   RATE     0.00000    
 AG WELL      3   ROW     7   COL     4   RATE     0.00000    
 AG WELL      4   ROW     7   COL     5   RATE     0.00000    
 AG WELL      5   ROW     8   COL     4   RATE     0.00000    
 AG WELL      6   ROW     8   COL     5   RATE     0.00000    
 
1
  VOLUMETRIC BUDGET FOR AGRICULTURAL FIELDS AT TIME STEP    5, STRESS PERIOD   7
  ------------------------------------------------------------------------------

     CUMULATIVE VOLUMES      L**3       RATES FOR THIS TIME STEP      L**3/T
     ------------------                 ------------------------

           IN:                                      IN:
           ---                                      ---
               AG WELLS  =           0.0000                 AG WELLS  =           0.0000
      DIVERSION SEGMENTS =    37111448.0000        DIVERSION SEGMENTS =          22.2050
           GW IRRIGATION =           0.0000             GW IRRIGATION =           0.0000
           SW IRRIGATION =           0.0000             SW IRRIGATION =           0.0000
        SYSTEM LOSSES GW =           0.0000          SYSTEM LOSSES GW =           0.0000
        SYSTEM LOSSES SW =           0.0000          SYSTEM LOSSES SW =           0.0000

                TOTAL IN =    37111448.0000                  TOTAL IN =          22.2050

          OUT:                                     OUT:
          ----                                     ----
               AG WELLS  =           0.0000                 AG WELLS  =           0.0000
      DIVERSION SEGMENTS =           0.0000        DIVERSION SEGMENTS =           0.0000
           GW IRRIGATION =           0.0000             GW IRRIGATION =           0.0000
           SW IRRIGATION =    37112188.0000             SW IRRIGATION =          22.2054
        SYSTEM LOSSES GW =           0.0000          SYSTEM LOSSES GW =           0.0000
        SYSTEM LOSSES SW =           0.0000          SYSTEM LOSSES SW =           0.0000

               TOTAL OUT =    37112188.0000                 TOTAL OUT =          22.2054

                IN - OUT =        -740.0000                  IN - OUT =      -4.4441E-04

     PERCENT DISCREPANCY =          -0.00         PERCENT DISCREPANCY =          -0.00



1
  VOLUMETRIC BUDGET FOR ENTIRE MODEL AT END OF TIME STEP    5, STRESS PERIOD   7
  ------------------------------------------------------------------------------

     CUMULATIVE VOLUMES      L**3       RATES FOR THIS TIME STEP      L**3/T
     ------------------                 ------------------------

           IN:                                      IN:
           ---                                      ---
             STORAGE     =    10210543.0000               STORAGE     =           1.5572
       CONSTANT HEAD     =           0.0000         CONSTANT HEAD     =           0.0000
     HEAD DEP BOUNDS     =     3907048.7500       HEAD DEP BOUNDS     =           0.2858
      STREAM LEAKAGE     =   166640848.0000        STREAM LEAKAGE     =          12.6977
        UZF RECHARGE     =       73223.9531          UZF RECHARGE     =           0.0000
               GW ET     =           0.0000                 GW ET     =           0.0000
     SURFACE LEAKAGE     =           0.0000       SURFACE LEAKAGE     =           0.0000
           AG WELLS      =           0.0000             AG WELLS      =           0.0000

                TOTAL IN =   180831648.0000                  TOTAL IN =          14.5406

          OUT:                                     OUT:
          ----                                     ----
             STORAGE     =    32738316.0000               STORAGE     =           2.2878
       CONSTANT HEAD     =           0.0000         CONSTANT HEAD     =           0.0000
     HEAD DEP BOUNDS     =     3988255.7500       HEAD DEP BOUNDS     =           0.2953
      STREAM LEAKAGE     =   143048992.0000        STREAM LEAKAGE     =          11.4236
        UZF RECHARGE     =           0.0000          UZF RECHARGE     =           0.0000
               GW ET     =     1052368.3750                 GW ET     =           0.5328
     SURFACE LEAKAGE     =           0.0000       SURFACE LEAKAGE     =           0.0000
           AG WELLS      =           0.0000             AG WELLS      =           0.0000

               TOTAL OUT =   180827936.0000                 TOTAL OUT =          14.5394

                IN - OUT =        3712.0000                  IN - OUT =       1.2131E-03

     PERCENT DISCREPANCY =           0.00         PERCENT DISCREPANCY =           0.01






         TIME SUMMARY AT END OF TIME STEP    5 IN STRESS PERIOD    7
                    SECONDS     MINUTES      HOURS       DAYS        YEARS
                    -----------------------------------------------------------
   TIME STEP LENGTH  87667.      1461.1      24.352      1.0147     2.77799E-03
 STRESS PERIOD TIME 4.38333E+05  7305.6      121.76      5.0733     1.38899E-02
         TOTAL TIME 1.36747E+07 2.27912E+05  3798.5      158.27     0.43333    
1
 
 SOLVING FOR HEAD 
                                                   Max.-Head-Change                         Max.-Flux-Residual
  Residual-Control   Outer-Iter.   Inner-Iter.     Column Row Layer    Maximum-Head-Change  Column Row Layer    Maximum-Flux-Residual          L2-NORM 
          0                 1           2             2    2     1       0.4974695337E-02       2    2    1         0.2590860819E+00      0.5760202563E+00
          0                 2           2             2   13     1      -0.6666158467E-02       4   13    1        -0.4154642157E+00      0.7197050439E+00
          0                 3           2             2   13     1      -0.4767739843E-03       4   13    1        -0.2794786018E-01      0.5004710979E-01
          0                 4           2             2   13     1      -0.2873209864E-03       4   13    1        -0.1776593140E-01      0.3081604519E-01
          0                 5           2             2   13     1      -0.1404122647E-03       4   13    1        -0.8616012463E-02      0.1500532223E-01
          0                 6           1             2   13     1      -0.7041708340E-04       4   13    1        -0.4326772349E-02      0.7529866013E-02

    ------------------------------------------------
       NWT REQUIRED            6 OUTER ITERATIONS 
       AND A TOTAL OF         11 INNER ITERATIONS.
    ------------------------------------------------

 NO OUTPUT CONTROL FOR STRESS PERIOD    7   TIME STEP    6
 
 SOLVING FOR HEAD 
                                                   Max.-Head-Change                         Max.-Flux-Residual
  Residual-Control   Outer-Iter.   Inner-Iter.     Column Row Layer    Maximum-Head-Change  Column Row Layer    Maximum-Flux-Residual          L2-NORM 
          0                 1           2             2    2     1       0.4955963209E-02       2    2    1         0.2581028957E+00      0.6163237151E+00
          0                 2           2             2   13     1      -0.6721675874E-02       4   13    1        -0.4223911669E+00      0.7290798341E+00
          0                 3           2             2   13     1      -0.4765407434E-03       2   13    1        -0.2765974405E-01      0.4974028936E-01
          0                 4           2             2   13     1      -0.2855319283E-03       4   13    1        -0.1766748172E-01      0.3063272920E-01
          0                 5           2             2   13     1      -0.1395670773E-03       4   13    1        -0.8563048823E-02      0.1491282467E-01
          0                 6           1             2   13     1      -0.7001001765E-04       4   13    1        -0.4300103243E-02      0.7484393261E-02

    ------------------------------------------------
       NWT REQUIRED            6 OUTER ITERATIONS 
       AND A TOTAL OF         11 INNER ITERATIONS.
    ------------------------------------------------

 NO OUTPUT CONTROL FOR STRESS PERIOD    7   TIME STEP    7
 
 SOLVING FOR HEAD 
                                                   Max.-Head-Change                         Max.-Flux-Residual
  Residual-Control   Outer-Iter.   Inner-Iter.     Column Row Layer    Maximum-Head-Change  Column Row Layer    Maximum-Flux-Residual          L2-NORM 
          0                 1           2             2    2     1       0.4937457776E-02       4   13    1         0.2797387463E+00      0.6576596438E+00
          0                 2           2             2   13     1      -0.6774041187E-02       4   13    1        -0.4280342125E+00      0.7370338989E+00
          0                 3           2             2   13     1      -0.4762519118E-03       2   13    1        -0.2764407077E-01      0.4950036599E-01
          0                 4           2             2   13     1      -0.2836686777E-03       4   13    1        -0.1756003617E-01      0.3043909193E-01
          0                 5           2             2   13     1      -0.1388095920E-03       4   13    1        -0.8509351572E-02      0.1482319080E-01
          0                 6           1             2   13     1      -0.6962223698E-04       4   13    1        -0.4272671760E-02      0.7438291784E-02

    ------------------------------------------------
       NWT REQUIRED            6 OUTER ITERATIONS 
       AND A TOTAL OF         11 INNER ITERATIONS.
    ------------------------------------------------

 NO OUTPUT CONTROL FOR STRESS PERIOD    7   TIME STEP    8
 
 SOLVING FOR HEAD 
                                                   Max.-Head-Change                         Max.-Flux-Residual
  Residual-Control   Outer-Iter.   Inner-Iter.     Column Row Layer    Maximum-Head-Change  Column Row Layer    Maximum-Flux-Residual          L2-NORM 
          0                 1           2             4   13     1       0.4978008654E-02       4   13    1         0.3205432540E+00      0.6964135363E+00
          0                 2           2             2   13     1      -0.6823229498E-02       4   13    1        -0.4326350584E+00      0.7438046240E+00
          0                 3           2             2   13     1      -0.4759933375E-03       2   13    1        -0.2762983182E-01      0.4931852692E-01
          0                 4           2             2   13     1      -0.2818162022E-03       4   13    1        -0.1744478529E-01      0.3023755547E-01
          0                 5           2             2   13     1      -0.1380060229E-03       4   13    1        -0.8454669676E-02      0.1473080017E-01
          0                 6           1             2   13     1      -0.6919796682E-04       4   13    1        -0.4245373273E-02      0.7390644055E-02

    ------------------------------------------------
       NWT REQUIRED            6 OUTER ITERATIONS 
       AND A TOTAL OF         11 INNER ITERATIONS.
    ------------------------------------------------

 NO OUTPUT CONTROL FOR STRESS PERIOD    7   TIME STEP    9
 
 SOLVING FOR HEAD 
                                                   Max.-Head-Change                         Max.-Flux-Residual
  Residual-Control   Outer-Iter.   Inner-Iter.     Column Row Layer    Maximum-Head-Change  Column Row Layer    Maximum-Flux-Residual          L2-NORM 
          0                 1           2             4   13     1       0.5490429332E-02       4   13    1         0.3535497158E+00      0.7312362610E+00
          0                 2           2             2   13     1      -0.6869335959E-02       4   13    1        -0.4363954270E+00      0.7495934414E+00
          0                 3           2             2   13     1      -0.4757299158E-03       2   13    1        -0.2761504704E-01      0.4918085310E-01
          0                 4           2             2   13     1      -0.2799611226E-03       4   13    1        -0.1732712707E-01      0.3003312798E-01
          0                 5           2             2   13     1      -0.1372046871E-03       4   13    1        -0.8398644390E-02      0.1463780106E-01
          0                 6           1             2   13     1      -0.6877924339E-04       4   13    1        -0.4217433047E-02      0.7343313167E-02

    ------------------------------------------------
       NWT REQUIRED            6 OUTER ITERATIONS 
       AND A TOTAL OF         11 INNER ITERATIONS.
    ------------------------------------------------

 OUTPUT CONTROL FOR STRESS PERIOD    7   TIME STEP   10
    PRINT BUDGET
    SAVE BUDGET
 UBDSV1 SAVING "         STORAGE" ON UNIT 102 AT TIME STEP 10, STRESS PERIOD   7
 UBDSV2 SAVING "   CONSTANT HEAD" ON UNIT 102 AT TIME STEP 10, STRESS PERIOD   7
 UBDSV1 SAVING "FLOW RIGHT FACE " ON UNIT 102 AT TIME STEP 10, STRESS PERIOD   7
 UBDSV1 SAVING "FLOW FRONT FACE " ON UNIT 102 AT TIME STEP 10, STRESS PERIOD   7

  HEAD DEP BOUNDS   PERIOD    7   STEP    10
 BOUNDARY      1   LAYER   1   ROW    13   COL     1   RATE   -0.294790    
 BOUNDARY      2   LAYER   1   ROW    14   COL     9   RATE    0.285764    



 STREAM LISTING     PERIOD      7   STEP       10

 LAYER ROW COL. STREAM  RCH.  FLOW INTO     FLOW TO   FLOW OUT OF   OVRLND.     DIRECT     STREAM       STREAM     STREAM     STREAM   STREAMBED  STREAMBED
                SEG.NO.  NO.  STRM. RCH.    AQUIFER    STRM. RCH.    RUNOFF     PRECIP       ET          HEAD       DEPTH      WIDTH   CONDCTNC.   GRADIENT

   1    1    1     1     1    6.2250E+01  3.7978E-01   6.1870E+01  0.000E+00  0.000E+00  0.000E+00  1.09460E+03  1.553E+00  1.854E+01  8.342E-02  1.518E+00
   1    2    2     1     2    6.1870E+01  5.8817E-01   6.1282E+01  0.000E+00  0.000E+00  0.000E+00  1.08961E+03  1.547E+00  1.848E+01  1.294E-01  1.516E+00
   1    3    3     1     3    6.1282E+01  5.0163E-01   6.0781E+01  0.000E+00  0.000E+00  0.000E+00  1.08396E+03  1.540E+00  1.841E+01  1.105E-01  1.513E+00
   1    3    4     1     4    6.0781E+01  4.6194E-01   6.0319E+01  0.000E+00  0.000E+00  0.000E+00  1.07894E+03  1.534E+00  1.836E+01  1.019E-01  1.511E+00
   1    4    5     2     1    5.8319E+01  3.9026E-01   5.7928E+01  0.000E+00  0.000E+00  0.000E+00  1.07394E+03  2.003E+00  1.200E+01  7.800E-02  1.668E+00
   1    5    6     2     2    5.7928E+01  2.9977E-01   5.7629E+01  0.000E+00  0.000E+00  0.000E+00  1.06851E+03  1.996E+00  1.200E+01  6.000E-02  1.665E+00
   1    6    6     2     3    5.7629E+01  2.9940E-01   5.7329E+01  0.000E+00  0.000E+00  0.000E+00  1.06378E+03  1.990E+00  1.200E+01  6.000E-02  1.663E+00
   1    7    6     2     4    5.7329E+01  2.9903E-01   5.7030E+01  0.000E+00  0.000E+00  0.000E+00  1.05906E+03  1.984E+00  1.200E+01  6.000E-02  1.661E+00
   1    8    6     2     5    5.7030E+01  2.9865E-01   5.6732E+01  0.000E+00  0.000E+00  0.000E+00  1.05434E+03  1.978E+00  1.200E+01  6.000E-02  1.659E+00
   1    3    5     3     1    2.0000E+00  2.8252E-01   1.7175E+00  0.000E+00  0.000E+00  0.000E+00  1.07555E+03  1.909E+00  9.636E+00  7.227E-02  1.955E+00
   1    3    6     3     2    1.7175E+00  2.4905E-01   1.4684E+00  0.000E+00  0.000E+00  0.000E+00  1.07264E+03  1.727E+00  8.909E+00  6.682E-02  1.864E+00
   1    3    7     3     3    1.4684E+00  1.9718E-01   1.2712E+00  0.000E+00  0.000E+00  0.000E+00  1.06987E+03  1.555E+00  8.218E+00  5.547E-02  1.777E+00
   1    4    8     3     4    1.2712E+00  2.2567E-01   1.0456E+00  0.000E+00  0.000E+00  0.000E+00  1.06682E+03  1.364E+00  7.455E+00  6.709E-02  1.682E+00
   1    5    8     3     5    1.0456E+00  1.5790E-01   8.8768E-01  0.000E+00  0.000E+00  0.000E+00  1.06362E+03  1.164E+00  6.655E+00  4.991E-02  1.582E+00
   1    6    8     3     6    8.8768E-01  5.5980E-02   8.3170E-01  0.000E+00  0.000E+00  0.000E+00  1.06158E+03  1.036E+00  6.145E+00  1.844E-02  1.518E+00
   1    5   10     4     1    1.0000E+01  9.0919E-02   9.9091E+00  0.000E+00  0.000E+00  0.000E+00  1.07836E+03  6.368E-01  1.000E+01  2.500E-02  1.212E+00
   1    5    9     4     2    9.9091E+00  1.8158E-01   9.7275E+00  0.000E+00  0.000E+00  0.000E+00  1.07154E+03  6.315E-01  1.000E+01  5.000E-02  1.211E+00
   1    6    8     4     3    9.7275E+00  1.2689E-01   9.6006E+00  0.000E+00  0.000E+00  0.000E+00  1.06381E+03  6.256E-01  1.000E+01  3.500E-02  1.209E+00
   1    6    8     5     1    1.0432E+01  2.2686E-01   1.0205E+01  0.000E+00  0.000E+00  0.000E+00  1.05868E+03  6.790E-01  1.542E+01  6.166E-02  1.226E+00
   1    7    7     5     2    1.0205E+01  2.7894E-01   9.9265E+00  0.000E+00  0.000E+00  0.000E+00  1.05417E+03  6.732E-01  1.519E+01  7.594E-02  1.224E+00
   1    8    7     5     3    9.9265E+00  1.9221E-01   9.7343E+00  0.000E+00  0.000E+00  0.000E+00  1.04992E+03  6.676E-01  1.497E+01  5.241E-02  1.223E+00
   1    8    6     5     4    9.7343E+00  1.3577E-01   9.5985E+00  0.000E+00  0.000E+00  0.000E+00  1.04691E+03  6.637E-01  1.482E+01  3.706E-02  1.221E+00
   1    9    6     6     1    4.4121E+01  2.8297E-01   4.3838E+01  0.000E+00  0.000E+00  0.000E+00  1.04444E+03  1.716E+00  1.200E+01  6.000E-02  1.572E+00
   1   10    7     6     2    4.3838E+01  2.8257E-01   4.3555E+01  0.000E+00  0.000E+00  0.000E+00  1.03989E+03  1.710E+00  1.200E+01  6.000E-02  1.570E+00
   1   11    7     6     3    4.3555E+01  2.8218E-01   4.3273E+01  0.000E+00  0.000E+00  0.000E+00  1.03534E+03  1.703E+00  1.200E+01  6.000E-02  1.568E+00
   1   12    7     6     4    4.3273E+01  2.8178E-01   4.2991E+01  0.000E+00  0.000E+00  0.000E+00  1.03079E+03  1.696E+00  1.200E+01  6.000E-02  1.565E+00
   1   13    7     6     5    4.2991E+01  1.0614E-02   4.2981E+01  0.000E+00  0.000E+00  0.000E+00  1.02760E+03  1.693E+00  1.200E+01  2.400E-02  1.474E-01
   1   14    9     7     1    1.5000E+02  1.3359E+00   1.4866E+02  0.000E+00  0.000E+00  0.000E+00  1.03987E+03  2.288E+00  5.529E+01  5.593E-01  7.962E-01
   1   13    8     7     2    1.4866E+02  1.8201E+00   1.4684E+02  0.000E+00  0.000E+00  0.000E+00  1.03478E+03  2.279E+00  5.526E+01  6.148E-01  9.869E-01
   1   13    7     7     3    1.4684E+02  1.4131E+00   1.4543E+02  0.000E+00  0.000E+00  0.000E+00  1.02969E+03  2.271E+00  5.522E+01  5.585E-01  8.434E-01
   1   13    6     8     1    1.8841E+02  9.2412E-01   1.8749E+02  0.000E+00  0.000E+00  0.000E+00  1.02494E+03  3.066E+00  4.446E+01  4.530E-01  6.799E-01
   1   13    5     8     2    1.8749E+02  1.4448E-01   1.8734E+02  0.000E+00  0.000E+00  0.000E+00  1.01869E+03  3.063E+00  4.441E+01  4.526E-01  1.064E-01
   1   13    4     8     3    1.8734E+02 -2.5869E+00   1.8993E+02  0.000E+00  0.000E+00  0.000E+00  1.01245E+03  3.070E+00  4.452E+01  4.537E+00 -1.901E-01
   1   13    3     8     4    1.8993E+02 -3.6952E+00   1.9362E+02  0.000E+00  0.000E+00  0.000E+00  1.00621E+03  3.089E+00  4.480E+01  4.565E+00 -2.698E-01
   1   13    2     8     5    1.9362E+02 -2.7612E+00   1.9639E+02  0.000E+00  0.000E+00  0.000E+00  9.99984E+02  3.109E+00  4.508E+01  4.594E+00 -2.004E-01
   1   13    1     8     6    1.9639E+02 -2.1027E+00   1.9849E+02  0.000E+00  0.000E+00  0.000E+00  9.94998E+02  3.123E+00  4.529E+01  2.769E+00 -2.531E-01
   1    8    6     9     1    2.2209E+01  0.0000E+00   2.2209E+01  0.000E+00  0.000E+00  0.000E+00  1.08240E+03  3.647E+00  4.000E+00  0.000E+00  2.216E+00
   1    8    5     9     2    2.2209E+01  0.0000E+00   2.2209E+01  0.000E+00  0.000E+00  0.000E+00  1.08190E+03  3.647E+00  4.000E+00  0.000E+00  2.216E+00



 UBDSV3 SAVING "           GW ET" ON UNIT  61 AT TIME STEP 10, STRESS PERIOD   7
 UBDSV3 SAVING "    UZF RECHARGE" ON UNIT  61 AT TIME STEP 10, STRESS PERIOD   7
 UBDSV3 SAVING " SURFACE LEAKAGE" ON UNIT  61 AT TIME STEP 10, STRESS PERIOD   7
 UBDSV3 SAVING "       HORT+DUNN" ON UNIT  61 AT TIME STEP 10, STRESS PERIOD   7
 UBDSV3 SAVING "  STORAGE CHANGE" ON UNIT  61 AT TIME STEP 10, STRESS PERIOD   7


UNSATURATED ZONE PACKAGE VOLUMETRIC BUDGET FOR  TIME STEP    10 STRESS PERIOD    7
  ------------------------------------------------------------------------------



     CUMULATIVE VOLUMES      L**3       RATES FOR THIS TIME STEP      L**3/T
     ------------------                 ------------------------

           IN:                                      IN:
           ---                                      ---
        INFILTRATION =   108742451.1833          INFILTRATION =          26.6173

          OUT:                                     OUT:
          ----                                     ----
              UZF ET =    89372066.6790                UZF ET =          26.5529
        UZF RECHARGE =       73224.0000          UZF RECHARGE =       0.0000E+00

            IN - OUT =    19297160.5044              IN - OUT =       6.4467E-02

          STORAGE:                                 STORAGE:
          --------                                 --------
      STORAGE CHANGE =    19297160.0776        STORAGE CHANGE =       6.4467E-02

 PERCENT DISCREPANCY IS DIFFERENCE BETWEEN IN-OUT MINUS CHANGE IN STORAGE
 DIVIDED BY THE AVERAGE OF IN AND OUT TIMES 100

 PERCENT DISCREPANCY =           0.00     PERCENT DISCREPANCY =           0.00






 

            AG WELLS      PERIOD    7   STEP  10
 AG WELL      1   LAYER   1   ROW     6   COL     4   RATE     0.00000    
 AG WELL      2   LAYER   1   ROW     6   COL     5   RATE     0.00000    
 AG WELL      3   LAYER   1   ROW     7   COL     4   RATE     0.00000    
 AG WELL      4   LAYER   1   ROW     7   COL     5   RATE     0.00000    
 AG WELL      5   LAYER   1   ROW     8   COL     4   RATE     0.00000    
 AG WELL      6   LAYER   1   ROW     8   COL     5   RATE     0.00000    
 
 

   DIVERSION SEGMENTS     PERIOD    7   STEP  10
 SEGMENT      9   RATE     22.2094    
 
 

        SW IRRIGATION     PERIOD    7   STEP  10
 SEGMENT      9   ROW     6   COL     4   RATE     3.70164    
 SEGMENT      9   ROW     6   COL     5   RATE     3.70164    
 SEGMENT      9   ROW     7   COL     4   RATE     3.70164    
 SEGMENT      9   ROW     7   COL     5   RATE     3.70164    
 SEGMENT      9   ROW     8   COL     4   RATE     3.70164    
 SEGMENT      9   ROW     8   COL     5   RATE     3.70164    
 
 

        GW IRRIGATION     PERIOD    7   STEP  10
 AG WELL      1   ROW     6   COL     4   RATE     0.00000    
 AG WELL      2   ROW     6   COL     5   RATE     0.00000    
 AG WELL      3   ROW     7   COL     4   RATE     0.00000    
 AG WELL      4   ROW     7   COL     5   RATE     0.00000    
 AG WELL      5   ROW     8   COL     4   RATE     0.00000    
 AG WELL      6   ROW     8   COL     5   RATE     0.00000    
 
1
  VOLUMETRIC BUDGET FOR AGRICULTURAL FIELDS AT TIME STEP   10, STRESS PERIOD   7
  ------------------------------------------------------------------------------

     CUMULATIVE VOLUMES      L**3       RATES FOR THIS TIME STEP      L**3/T
     ------------------                 ------------------------

           IN:                                      IN:
           ---                                      ---
               AG WELLS  =           0.0000                 AG WELLS  =           0.0000
      DIVERSION SEGMENTS =    46845764.0000        DIVERSION SEGMENTS =          22.2094
           GW IRRIGATION =           0.0000             GW IRRIGATION =           0.0000
           SW IRRIGATION =           0.0000             SW IRRIGATION =           0.0000
        SYSTEM LOSSES GW =           0.0000          SYSTEM LOSSES GW =           0.0000
        SYSTEM LOSSES SW =           0.0000          SYSTEM LOSSES SW =           0.0000

                TOTAL IN =    46845764.0000                  TOTAL IN =          22.2094

          OUT:                                     OUT:
          ----                                     ----
               AG WELLS  =           0.0000                 AG WELLS  =           0.0000
      DIVERSION SEGMENTS =           0.0000        DIVERSION SEGMENTS =           0.0000
           GW IRRIGATION =           0.0000             GW IRRIGATION =           0.0000
           SW IRRIGATION =    46846696.0000             SW IRRIGATION =          22.2098
        SYSTEM LOSSES GW =           0.0000          SYSTEM LOSSES GW =           0.0000
        SYSTEM LOSSES SW =           0.0000          SYSTEM LOSSES SW =           0.0000

               TOTAL OUT =    46846696.0000                 TOTAL OUT =          22.2098

                IN - OUT =        -932.0000                  IN - OUT =      -4.4250E-04

     PERCENT DISCREPANCY =          -0.00         PERCENT DISCREPANCY =          -0.00



1
  VOLUMETRIC BUDGET FOR ENTIRE MODEL AT END OF TIME STEP   10, STRESS PERIOD   7
  ------------------------------------------------------------------------------

     CUMULATIVE VOLUMES      L**3       RATES FOR THIS TIME STEP      L**3/T
     ------------------                 ------------------------

           IN:                                      IN:
           ---                                      ---
             STORAGE     =    10726939.0000               STORAGE     =           0.9868
       CONSTANT HEAD     =           0.0000         CONSTANT HEAD     =           0.0000
     HEAD DEP BOUNDS     =     4032308.7500       HEAD DEP BOUNDS     =           0.2858
      STREAM LEAKAGE     =   172206736.0000        STREAM LEAKAGE     =          12.6980
        UZF RECHARGE     =       73223.9531          UZF RECHARGE     =           0.0000
               GW ET     =           0.0000                 GW ET     =           0.0000
     SURFACE LEAKAGE     =           0.0000       SURFACE LEAKAGE     =           0.0000
           AG WELLS      =           0.0000             AG WELLS      =           0.0000

                TOTAL IN =   187039200.0000                  TOTAL IN =          13.9705

          OUT:                                     OUT:
          ----                                     ----
             STORAGE     =    33726820.0000               STORAGE     =           2.2374
       CONSTANT HEAD     =           0.0000         CONSTANT HEAD     =           0.0000
     HEAD DEP BOUNDS     =     4117555.2500       HEAD DEP BOUNDS     =           0.2948
      STREAM LEAKAGE     =   147976688.0000        STREAM LEAKAGE     =          11.1460
        UZF RECHARGE     =           0.0000          UZF RECHARGE     =           0.0000
               GW ET     =     1213903.5000                 GW ET     =           0.2911
     SURFACE LEAKAGE     =           0.0000       SURFACE LEAKAGE     =           0.0000
           AG WELLS      =           0.0000             AG WELLS      =           0.0000

               TOTAL OUT =   187034960.0000                 TOTAL OUT =          13.9693

                IN - OUT =        4240.0000                  IN - OUT =       1.1759E-03

     PERCENT DISCREPANCY =           0.00         PERCENT DISCREPANCY =           0.01






         TIME SUMMARY AT END OF TIME STEP   10 IN STRESS PERIOD    7
                    SECONDS     MINUTES      HOURS       DAYS        YEARS
                    -----------------------------------------------------------
   TIME STEP LENGTH  87667.      1461.1      24.352      1.0147     2.77799E-03
 STRESS PERIOD TIME 8.76667E+05  14611.      243.52      10.147     2.77799E-02
         TOTAL TIME 1.41131E+07 2.35218E+05  3920.3      163.35     0.44722    
1
 
 SOLVING FOR HEAD 
                                                   Max.-Head-Change                         Max.-Flux-Residual
  Residual-Control   Outer-Iter.   Inner-Iter.     Column Row Layer    Maximum-Head-Change  Column Row Layer    Maximum-Flux-Residual          L2-NORM 
          0                 1           2             4   13     1       0.5905129844E-02       4   13    1         0.3802534838E+00      0.7618426903E+00
          0                 2           2             2   13     1      -0.6912438127E-02       4   13    1        -0.4394758217E+00      0.7545651384E+00
          0                 3           2             2   13     1      -0.4755065592E-03       2   13    1        -0.2760240731E-01      0.4907968488E-01
          0                 4           2             2   13     1      -0.2781074100E-03       4   13    1        -0.1720482165E-01      0.2982517420E-01
          0                 5           2             2   13     1      -0.1363759421E-03       4   13    1        -0.8342566729E-02      0.1454324859E-01
          0                 6           1             2   13     1      -0.6836573204E-04       4   13    1        -0.4188523550E-02      0.7296227774E-02

    ------------------------------------------------
       NWT REQUIRED            6 OUTER ITERATIONS 
       AND A TOTAL OF         11 INNER ITERATIONS.
    ------------------------------------------------

 NO OUTPUT CONTROL FOR STRESS PERIOD    7   TIME STEP   11
 
 SOLVING FOR HEAD 
                                                   Max.-Head-Change                         Max.-Flux-Residual
  Residual-Control   Outer-Iter.   Inner-Iter.     Column Row Layer    Maximum-Head-Change  Column Row Layer    Maximum-Flux-Residual          L2-NORM 
          0                 1           2             4   13     1       0.6241023494E-02       4   13    1         0.4018754662E+00      0.7884437412E+00
          0                 2           2             2   13     1      -0.6952704879E-02       4   13    1        -0.4420090895E+00      0.7588591092E+00
          0                 3           2             2   13     1      -0.4756988446E-03       2   13    1        -0.2761395367E-01      0.4902125095E-01
          0                 4           2             2   13     1      -0.2758305150E-03       4   13    1        -0.1707999235E-01      0.2960035359E-01
          0                 5           2             2   13     1      -0.1355872579E-03       4   13    1        -0.8287237541E-02      0.1445104819E-01
          0                 6           1             2   13     1      -0.6795224453E-04       4   13    1        -0.4160652144E-02      0.7248811615E-02

    ------------------------------------------------
       NWT REQUIRED            6 OUTER ITERATIONS 
       AND A TOTAL OF         11 INNER ITERATIONS.
    ------------------------------------------------

 NO OUTPUT CONTROL FOR STRESS PERIOD    7   TIME STEP   12
 
 SOLVING FOR HEAD 
                                                   Max.-Head-Change                         Max.-Flux-Residual
  Residual-Control   Outer-Iter.   Inner-Iter.     Column Row Layer    Maximum-Head-Change  Column Row Layer    Maximum-Flux-Residual          L2-NORM 
          0                 1           2             4   13     1       0.6513037780E-02       4   13    1         0.4193787008E+00      0.8114342340E+00
          0                 2           2             2   13     1      -0.6990222616E-02       4   13    1        -0.4440964930E+00      0.7625854761E+00
          0                 3           2             2   13     1      -0.4751678924E-03       2   13    1        -0.2758296814E-01      0.4896083183E-01
          0                 4           2             2   13     1      -0.2743379224E-03       4   13    1        -0.1695402510E-01      0.2940003912E-01
          0                 5           2             2   13     1      -0.1347557056E-03       4   13    1        -0.8230461652E-02      0.1435637138E-01
          0                 6           1             2   13     1      -0.6752277860E-04       4   13    1        -0.4131249003E-02      0.7199604619E-02

    ------------------------------------------------
       NWT REQUIRED            6 OUTER ITERATIONS 
       AND A TOTAL OF         11 INNER ITERATIONS.
    ------------------------------------------------

 NO OUTPUT CONTROL FOR STRESS PERIOD    7   TIME STEP   13
 
 SOLVING FOR HEAD 
                                                   Max.-Head-Change                         Max.-Flux-Residual
  Residual-Control   Outer-Iter.   Inner-Iter.     Column Row Layer    Maximum-Head-Change  Column Row Layer    Maximum-Flux-Residual          L2-NORM 
          0                 1           2             4   13     1       0.6733617073E-02       4   13    1         0.4335663182E+00      0.8312659592E+00
          0                 2           2             2   13     1      -0.7025208036E-02       4   13    1        -0.4458279308E+00      0.7658424004E+00
          0                 3           2             2   13     1      -0.4750294348E-03       2   13    1        -0.2757488321E-01      0.4893129968E-01
          0                 4           2             2   13     1      -0.2724482415E-03       4   13    1        -0.1682516180E-01      0.2918403358E-01
          0                 5           2             2   13     1      -0.1339274485E-03       4   13    1        -0.8175121839E-02      0.1426257817E-01
          0                 6           1             2   13     1      -0.6713434857E-04       4   13    1        -0.4103763582E-02      0.7153980165E-02

    ------------------------------------------------
       NWT REQUIRED            6 OUTER ITERATIONS 
       AND A TOTAL OF         11 INNER ITERATIONS.
    ------------------------------------------------

 NO OUTPUT CONTROL FOR STRESS PERIOD    7   TIME STEP   14
 
 SOLVING FOR HEAD 
                                                   Max.-Head-Change                         Max.-Flux-Residual
  Residual-Control   Outer-Iter.   Inner-Iter.     Column Row Layer    Maximum-Head-Change  Column Row Layer    Maximum-Flux-Residual          L2-NORM 
          0                 1           2             4   13     1       0.6912495574E-02       4   13    1         0.4450661234E+00      0.8483738823E+00
          0                 2           2             2   13     1      -0.7057739017E-02       4   13    1        -0.4472684939E+00      0.7686999950E+00
          0                 3           2             2   13     1      -0.4749284095E-03       2   13    1        -0.2756892101E-01      0.4891541131E-01
          0                 4           2             2   13     1      -0.2710582116E-03       4   13    1        -0.1672836958E-01      0.2902255201E-01
          0                 5           2             2   13     1      -0.1328237163E-03       4   13    1        -0.8102448328E-02      0.1413935512E-01
          0                 6           1             2   13     1      -0.6659234472E-04       4   13    1        -0.4069091530E-02      0.7094809883E-02

    ------------------------------------------------
       NWT REQUIRED            6 OUTER ITERATIONS 
       AND A TOTAL OF         11 INNER ITERATIONS.
    ------------------------------------------------

 OUTPUT CONTROL FOR STRESS PERIOD    7   TIME STEP   15
    PRINT BUDGET
    SAVE BUDGET
 UBDSV1 SAVING "         STORAGE" ON UNIT 102 AT TIME STEP 15, STRESS PERIOD   7
 UBDSV2 SAVING "   CONSTANT HEAD" ON UNIT 102 AT TIME STEP 15, STRESS PERIOD   7
 UBDSV1 SAVING "FLOW RIGHT FACE " ON UNIT 102 AT TIME STEP 15, STRESS PERIOD   7
 UBDSV1 SAVING "FLOW FRONT FACE " ON UNIT 102 AT TIME STEP 15, STRESS PERIOD   7

  HEAD DEP BOUNDS   PERIOD    7   STEP    15
 BOUNDARY      1   LAYER   1   ROW    13   COL     1   RATE   -0.294388    
 BOUNDARY      2   LAYER   1   ROW    14   COL     9   RATE    0.285765    



 STREAM LISTING     PERIOD      7   STEP       15

 LAYER ROW COL. STREAM  RCH.  FLOW INTO     FLOW TO   FLOW OUT OF   OVRLND.     DIRECT     STREAM       STREAM     STREAM     STREAM   STREAMBED  STREAMBED
                SEG.NO.  NO.  STRM. RCH.    AQUIFER    STRM. RCH.    RUNOFF     PRECIP       ET          HEAD       DEPTH      WIDTH   CONDCTNC.   GRADIENT

   1    1    1     1     1    6.2250E+01  3.7978E-01   6.1870E+01  0.000E+00  0.000E+00  0.000E+00  1.09460E+03  1.553E+00  1.854E+01  8.342E-02  1.518E+00
   1    2    2     1     2    6.1870E+01  5.8817E-01   6.1282E+01  0.000E+00  0.000E+00  0.000E+00  1.08961E+03  1.547E+00  1.848E+01  1.294E-01  1.516E+00
   1    3    3     1     3    6.1282E+01  5.0163E-01   6.0781E+01  0.000E+00  0.000E+00  0.000E+00  1.08396E+03  1.540E+00  1.841E+01  1.105E-01  1.513E+00
   1    3    4     1     4    6.0781E+01  4.6194E-01   6.0319E+01  0.000E+00  0.000E+00  0.000E+00  1.07894E+03  1.534E+00  1.836E+01  1.019E-01  1.511E+00
   1    4    5     2     1    5.8319E+01  3.9026E-01   5.7928E+01  0.000E+00  0.000E+00  0.000E+00  1.07394E+03  2.003E+00  1.200E+01  7.800E-02  1.668E+00
   1    5    6     2     2    5.7928E+01  2.9977E-01   5.7629E+01  0.000E+00  0.000E+00  0.000E+00  1.06851E+03  1.996E+00  1.200E+01  6.000E-02  1.665E+00
   1    6    6     2     3    5.7629E+01  2.9940E-01   5.7329E+01  0.000E+00  0.000E+00  0.000E+00  1.06378E+03  1.990E+00  1.200E+01  6.000E-02  1.663E+00
   1    7    6     2     4    5.7329E+01  2.9903E-01   5.7030E+01  0.000E+00  0.000E+00  0.000E+00  1.05906E+03  1.984E+00  1.200E+01  6.000E-02  1.661E+00
   1    8    6     2     5    5.7030E+01  2.9865E-01   5.6732E+01  0.000E+00  0.000E+00  0.000E+00  1.05434E+03  1.978E+00  1.200E+01  6.000E-02  1.659E+00
   1    3    5     3     1    2.0000E+00  2.8252E-01   1.7175E+00  0.000E+00  0.000E+00  0.000E+00  1.07555E+03  1.909E+00  9.636E+00  7.227E-02  1.955E+00
   1    3    6     3     2    1.7175E+00  2.4905E-01   1.4684E+00  0.000E+00  0.000E+00  0.000E+00  1.07264E+03  1.727E+00  8.909E+00  6.682E-02  1.864E+00
   1    3    7     3     3    1.4684E+00  1.9718E-01   1.2712E+00  0.000E+00  0.000E+00  0.000E+00  1.06987E+03  1.555E+00  8.218E+00  5.547E-02  1.777E+00
   1    4    8     3     4    1.2712E+00  2.2567E-01   1.0456E+00  0.000E+00  0.000E+00  0.000E+00  1.06682E+03  1.364E+00  7.455E+00  6.709E-02  1.682E+00
   1    5    8     3     5    1.0456E+00  1.5790E-01   8.8768E-01  0.000E+00  0.000E+00  0.000E+00  1.06362E+03  1.164E+00  6.655E+00  4.991E-02  1.582E+00
   1    6    8     3     6    8.8768E-01  5.5980E-02   8.3170E-01  0.000E+00  0.000E+00  0.000E+00  1.06158E+03  1.036E+00  6.145E+00  1.844E-02  1.518E+00
   1    5   10     4     1    1.0000E+01  9.0919E-02   9.9091E+00  0.000E+00  0.000E+00  0.000E+00  1.07836E+03  6.368E-01  1.000E+01  2.500E-02  1.212E+00
   1    5    9     4     2    9.9091E+00  1.8158E-01   9.7275E+00  0.000E+00  0.000E+00  0.000E+00  1.07154E+03  6.315E-01  1.000E+01  5.000E-02  1.211E+00
   1    6    8     4     3    9.7275E+00  1.2689E-01   9.6006E+00  0.000E+00  0.000E+00  0.000E+00  1.06381E+03  6.256E-01  1.000E+01  3.500E-02  1.209E+00
   1    6    8     5     1    1.0432E+01  2.2686E-01   1.0205E+01  0.000E+00  0.000E+00  0.000E+00  1.05868E+03  6.790E-01  1.542E+01  6.166E-02  1.226E+00
   1    7    7     5     2    1.0205E+01  2.7894E-01   9.9265E+00  0.000E+00  0.000E+00  0.000E+00  1.05417E+03  6.732E-01  1.519E+01  7.594E-02  1.224E+00
   1    8    7     5     3    9.9265E+00  1.9221E-01   9.7343E+00  0.000E+00  0.000E+00  0.000E+00  1.04992E+03  6.676E-01  1.497E+01  5.241E-02  1.223E+00
   1    8    6     5     4    9.7343E+00  1.3577E-01   9.5985E+00  0.000E+00  0.000E+00  0.000E+00  1.04691E+03  6.637E-01  1.482E+01  3.706E-02  1.221E+00
   1    9    6     6     1    4.4116E+01  2.8296E-01   4.3833E+01  0.000E+00  0.000E+00  0.000E+00  1.04444E+03  1.716E+00  1.200E+01  6.000E-02  1.572E+00
   1   10    7     6     2    4.3833E+01  2.8256E-01   4.3551E+01  0.000E+00  0.000E+00  0.000E+00  1.03989E+03  1.709E+00  1.200E+01  6.000E-02  1.570E+00
   1   11    7     6     3    4.3551E+01  2.8217E-01   4.3269E+01  0.000E+00  0.000E+00  0.000E+00  1.03534E+03  1.703E+00  1.200E+01  6.000E-02  1.568E+00
   1   12    7     6     4    4.3269E+01  2.8177E-01   4.2987E+01  0.000E+00  0.000E+00  0.000E+00  1.03079E+03  1.696E+00  1.200E+01  6.000E-02  1.565E+00
   1   13    7     6     5    4.2987E+01  1.0571E-02   4.2976E+01  0.000E+00  0.000E+00  0.000E+00  1.02760E+03  1.693E+00  1.200E+01  2.400E-02  1.468E-01
   1   14    9     7     1    1.5000E+02  1.3359E+00   1.4866E+02  0.000E+00  0.000E+00  0.000E+00  1.03987E+03  2.288E+00  5.529E+01  5.593E-01  7.962E-01
   1   13    8     7     2    1.4866E+02  1.8196E+00   1.4684E+02  0.000E+00  0.000E+00  0.000E+00  1.03478E+03  2.279E+00  5.526E+01  6.148E-01  9.866E-01
   1   13    7     7     3    1.4684E+02  1.4122E+00   1.4543E+02  0.000E+00  0.000E+00  0.000E+00  1.02969E+03  2.271E+00  5.522E+01  5.585E-01  8.429E-01
   1   13    6     8     1    1.8841E+02  9.2474E-01   1.8748E+02  0.000E+00  0.000E+00  0.000E+00  1.02494E+03  3.066E+00  4.446E+01  4.530E-01  6.804E-01
   1   13    5     8     2    1.8748E+02  1.4550E-01   1.8734E+02  0.000E+00  0.000E+00  0.000E+00  1.01869E+03  3.063E+00  4.441E+01  4.526E-01  1.072E-01
   1   13    4     8     3    1.8734E+02 -2.5621E+00   1.8990E+02  0.000E+00  0.000E+00  0.000E+00  1.01245E+03  3.070E+00  4.452E+01  4.536E+00 -1.883E-01
   1   13    3     8     4    1.8990E+02 -3.6668E+00   1.9357E+02  0.000E+00  0.000E+00  0.000E+00  1.00621E+03  3.089E+00  4.479E+01  4.564E+00 -2.678E-01
   1   13    2     8     5    1.9357E+02 -2.6949E+00   1.9626E+02  0.000E+00  0.000E+00  0.000E+00  9.99983E+02  3.108E+00  4.507E+01  4.593E+00 -1.956E-01
   1   13    1     8     6    1.9626E+02 -2.0752E+00   1.9834E+02  0.000E+00  0.000E+00  0.000E+00  9.94997E+02  3.122E+00  4.527E+01  2.768E+00 -2.499E-01
   1    8    6     9     1    2.2214E+01  0.0000E+00   2.2214E+01  0.000E+00  0.000E+00  0.000E+00  1.08240E+03  3.648E+00  4.000E+00  0.000E+00  2.216E+00
   1    8    5     9     2    2.2214E+01  0.0000E+00   2.2214E+01  0.000E+00  0.000E+00  0.000E+00  1.08190E+03  3.648E+00  4.000E+00  0.000E+00  2.216E+00



 UBDSV3 SAVING "           GW ET" ON UNIT  61 AT TIME STEP 15, STRESS PERIOD   7
 UBDSV3 SAVING "    UZF RECHARGE" ON UNIT  61 AT TIME STEP 15, STRESS PERIOD   7
 UBDSV3 SAVING " SURFACE LEAKAGE" ON UNIT  61 AT TIME STEP 15, STRESS PERIOD   7
 UBDSV3 SAVING "       HORT+DUNN" ON UNIT  61 AT TIME STEP 15, STRESS PERIOD   7
 UBDSV3 SAVING "  STORAGE CHANGE" ON UNIT  61 AT TIME STEP 15, STRESS PERIOD   7


UNSATURATED ZONE PACKAGE VOLUMETRIC BUDGET FOR  TIME STEP    15 STRESS PERIOD    7
  ------------------------------------------------------------------------------



     CUMULATIVE VOLUMES      L**3       RATES FOR THIS TIME STEP      L**3/T
     ------------------                 ------------------------

           IN:                                      IN:
           ---                                      ---
        INFILTRATION =   120410894.8425          INFILTRATION =          26.6219

          OUT:                                     OUT:
          ----                                     ----
              UZF ET =   101011603.3069                UZF ET =          26.5549
        UZF RECHARGE =       73224.0000          UZF RECHARGE =       0.0000E+00

            IN - OUT =    19326067.5356              IN - OUT =       6.6971E-02

          STORAGE:                                 STORAGE:
          --------                                 --------
      STORAGE CHANGE =    19326067.0429        STORAGE CHANGE =       6.6972E-02

 PERCENT DISCREPANCY IS DIFFERENCE BETWEEN IN-OUT MINUS CHANGE IN STORAGE
 DIVIDED BY THE AVERAGE OF IN AND OUT TIMES 100

 PERCENT DISCREPANCY =           0.00     PERCENT DISCREPANCY =           0.00






 

            AG WELLS      PERIOD    7   STEP  15
 AG WELL      1   LAYER   1   ROW     6   COL     4   RATE     0.00000    
 AG WELL      2   LAYER   1   ROW     6   COL     5   RATE     0.00000    
 AG WELL      3   LAYER   1   ROW     7   COL     4   RATE     0.00000    
 AG WELL      4   LAYER   1   ROW     7   COL     5   RATE     0.00000    
 AG WELL      5   LAYER   1   ROW     8   COL     4   RATE     0.00000    
 AG WELL      6   LAYER   1   ROW     8   COL     5   RATE     0.00000    
 
 

   DIVERSION SEGMENTS     PERIOD    7   STEP  15
 SEGMENT      9   RATE     22.2139    
 
 

        SW IRRIGATION     PERIOD    7   STEP  15
 SEGMENT      9   ROW     6   COL     4   RATE     3.70240    
 SEGMENT      9   ROW     6   COL     5   RATE     3.70240    
 SEGMENT      9   ROW     7   COL     4   RATE     3.70240    
 SEGMENT      9   ROW     7   COL     5   RATE     3.70240    
 SEGMENT      9   ROW     8   COL     4   RATE     3.70240    
 SEGMENT      9   ROW     8   COL     5   RATE     3.70240    
 
 

        GW IRRIGATION     PERIOD    7   STEP  15
 AG WELL      1   ROW     6   COL     4   RATE     0.00000    
 AG WELL      2   ROW     6   COL     5   RATE     0.00000    
 AG WELL      3   ROW     7   COL     4   RATE     0.00000    
 AG WELL      4   ROW     7   COL     5   RATE     0.00000    
 AG WELL      5   ROW     8   COL     4   RATE     0.00000    
 AG WELL      6   ROW     8   COL     5   RATE     0.00000    
 
1
  VOLUMETRIC BUDGET FOR AGRICULTURAL FIELDS AT TIME STEP   15, STRESS PERIOD   7
  ------------------------------------------------------------------------------

     CUMULATIVE VOLUMES      L**3       RATES FOR THIS TIME STEP      L**3/T
     ------------------                 ------------------------

           IN:                                      IN:
           ---                                      ---
               AG WELLS  =           0.0000                 AG WELLS  =           0.0000
      DIVERSION SEGMENTS =    56582060.0000        DIVERSION SEGMENTS =          22.2139
           GW IRRIGATION =           0.0000             GW IRRIGATION =           0.0000
           SW IRRIGATION =           0.0000             SW IRRIGATION =           0.0000
        SYSTEM LOSSES GW =           0.0000          SYSTEM LOSSES GW =           0.0000
        SYSTEM LOSSES SW =           0.0000          SYSTEM LOSSES SW =           0.0000

                TOTAL IN =    56582060.0000                  TOTAL IN =          22.2139

          OUT:                                     OUT:
          ----                                     ----
               AG WELLS  =           0.0000                 AG WELLS  =           0.0000
      DIVERSION SEGMENTS =           0.0000        DIVERSION SEGMENTS =           0.0000
           GW IRRIGATION =           0.0000             GW IRRIGATION =           0.0000
           SW IRRIGATION =    56583184.0000             SW IRRIGATION =          22.2144
        SYSTEM LOSSES GW =           0.0000          SYSTEM LOSSES GW =           0.0000
        SYSTEM LOSSES SW =           0.0000          SYSTEM LOSSES SW =           0.0000

               TOTAL OUT =    56583184.0000                 TOTAL OUT =          22.2144

                IN - OUT =       -1124.0000                  IN - OUT =      -4.4250E-04

     PERCENT DISCREPANCY =          -0.00         PERCENT DISCREPANCY =          -0.00



1
  VOLUMETRIC BUDGET FOR ENTIRE MODEL AT END OF TIME STEP   15, STRESS PERIOD   7
  ------------------------------------------------------------------------------

     CUMULATIVE VOLUMES      L**3       RATES FOR THIS TIME STEP      L**3/T
     ------------------                 ------------------------

           IN:                                      IN:
           ---                                      ---
             STORAGE     =    11083131.0000               STORAGE     =           0.7210
       CONSTANT HEAD     =           0.0000         CONSTANT HEAD     =           0.0000
     HEAD DEP BOUNDS     =     4157568.7500       HEAD DEP BOUNDS     =           0.2858
      STREAM LEAKAGE     =   177772720.0000        STREAM LEAKAGE     =          12.6981
        UZF RECHARGE     =       73223.9531          UZF RECHARGE     =           0.0000
               GW ET     =           0.0000                 GW ET     =           0.0000
     SURFACE LEAKAGE     =           0.0000       SURFACE LEAKAGE     =           0.0000
           AG WELLS      =           0.0000             AG WELLS      =           0.0000

                TOTAL IN =   193086640.0000                  TOTAL IN =          13.7049

          OUT:                                     OUT:
          ----                                     ----
             STORAGE     =    34699388.0000               STORAGE     =           2.2080
       CONSTANT HEAD     =           0.0000         CONSTANT HEAD     =           0.0000
     HEAD DEP BOUNDS     =     4246662.5000       HEAD DEP BOUNDS     =           0.2944
      STREAM LEAKAGE     =   152820688.0000        STREAM LEAKAGE     =          10.9990
        UZF RECHARGE     =           0.0000          UZF RECHARGE     =           0.0000
               GW ET     =     1315141.2500                 GW ET     =           0.2023
     SURFACE LEAKAGE     =           0.0000       SURFACE LEAKAGE     =           0.0000
           AG WELLS      =           0.0000             AG WELLS      =           0.0000

               TOTAL OUT =   193081872.0000                 TOTAL OUT =          13.7037

                IN - OUT =        4768.0000                  IN - OUT =       1.1358E-03

     PERCENT DISCREPANCY =           0.00         PERCENT DISCREPANCY =           0.01






         TIME SUMMARY AT END OF TIME STEP   15 IN STRESS PERIOD    7
                    SECONDS     MINUTES      HOURS       DAYS        YEARS
                    -----------------------------------------------------------
   TIME STEP LENGTH  87667.      1461.1      24.352      1.0147     2.77799E-03
 STRESS PERIOD TIME 1.31500E+06  21917.      365.28      15.220     4.16698E-02
         TOTAL TIME 1.45514E+07 2.42524E+05  4042.1      168.42     0.46111    
1
 
 SOLVING FOR HEAD 
                                                   Max.-Head-Change                         Max.-Flux-Residual
  Residual-Control   Outer-Iter.   Inner-Iter.     Column Row Layer    Maximum-Head-Change  Column Row Layer    Maximum-Flux-Residual          L2-NORM 
          0                 1           2             4   13     1       0.7057613166E-02       4   13    1         0.4543903476E+00      0.8631583960E+00
          0                 2           2             2   13     1      -0.7088026319E-02       4   13    1        -0.4484725680E+00      0.7712262067E+00
          0                 3           2             2   13     1      -0.4748454661E-03       2   13    1        -0.2756397143E-01      0.4891027255E-01
          0                 4           2             2   13     1      -0.2720788936E-03       4   13    1        -0.1677698821E-01      0.2911722779E-01
          0                 5           2             2   13     1      -0.1303642021E-03       4   13    1        -0.7946447764E-02      0.1387155550E-01
          0                 6           1             2   13     1      -0.6555939379E-04       4   13    1        -0.4003751201E-02      0.6982111159E-02

    ------------------------------------------------
       NWT REQUIRED            6 OUTER ITERATIONS 
       AND A TOTAL OF         11 INNER ITERATIONS.
    ------------------------------------------------

 NO OUTPUT CONTROL FOR STRESS PERIOD    7   TIME STEP   16
 
 SOLVING FOR HEAD 
                                                   Max.-Head-Change                         Max.-Flux-Residual
  Residual-Control   Outer-Iter.   Inner-Iter.     Column Row Layer    Maximum-Head-Change  Column Row Layer    Maximum-Flux-Residual          L2-NORM 
          0                 1           2             4   13     1       0.7175688273E-02       4   13    1         0.4619724352E+00      0.8759810006E+00
          0                 2           2             2   13     1      -0.7116189696E-02       4   13    1        -0.4494879801E+00      0.7734723579E+00
          0                 3           2             2   13     1      -0.4747544346E-03       2   13    1        -0.2755852438E-01      0.4890903630E-01
          0                 4           2             2   13     1      -0.2730294295E-03       4   13    1        -0.1682367043E-01      0.2920621576E-01
          0                 5           1             2   13     1      -0.1279800912E-03       4   13    1        -0.7795800357E-02      0.1361255850E-01
          0                 6           1             2   13     1      -0.6455341230E-04       4   13    1        -0.3939370599E-02      0.6871428504E-02

    ------------------------------------------------
       NWT REQUIRED            6 OUTER ITERATIONS 
       AND A TOTAL OF         10 INNER ITERATIONS.
    ------------------------------------------------

 NO OUTPUT CONTROL FOR STRESS PERIOD    7   TIME STEP   17
 
 SOLVING FOR HEAD 
                                                   Max.-Head-Change                         Max.-Flux-Residual
  Residual-Control   Outer-Iter.   Inner-Iter.     Column Row Layer    Maximum-Head-Change  Column Row Layer    Maximum-Flux-Residual          L2-NORM 
          0                 1           2             4   13     1       0.7271741537E-02       4   13    1         0.4681360695E+00      0.8871361696E+00
          0                 2           2             2   13     1      -0.7142357323E-02       4   13    1        -0.4503492421E+00      0.7754805214E+00
          0                 3           2             2   13     1      -0.4746413056E-03       2   13    1        -0.2755178335E-01      0.4891000282E-01
          0                 4           2             2   13     1      -0.2739260215E-03       4   13    1        -0.1686778536E-01      0.2928995029E-01
          0                 5           1             2   13     1      -0.1256578787E-03       4   13    1        -0.7647915141E-02      0.1335908539E-01
          0                 6           1             2   13     1      -0.6357524256E-04       4   13    1        -0.3877790139E-02      0.6766273798E-02

    ------------------------------------------------
       NWT REQUIRED            6 OUTER ITERATIONS 
       AND A TOTAL OF         10 INNER ITERATIONS.
    ------------------------------------------------

 NO OUTPUT CONTROL FOR STRESS PERIOD    7   TIME STEP   18
 
 SOLVING FOR HEAD 
                                                   Max.-Head-Change                         Max.-Flux-Residual
  Residual-Control   Outer-Iter.   Inner-Iter.     Column Row Layer    Maximum-Head-Change  Column Row Layer    Maximum-Flux-Residual          L2-NORM 
          0                 1           2             4   13     1       0.7349991061E-02       4   13    1         0.4731533117E+00      0.8968722310E+00
          0                 2           2             2   13     1      -0.7166712205E-02       4   13    1        -0.4510863986E+00      0.7772873580E+00
          0                 3           2             2   13     1      -0.4745018492E-03       2   13    1        -0.2754349241E-01      0.4891157625E-01
          0                 4           2             2   13     1      -0.2747615819E-03       4   13    1        -0.1690819817E-01      0.2936772114E-01
          0                 5           1             2   13     1      -0.1234007458E-03       4   13    1        -0.7504706677E-02      0.1311387689E-01
          0                 6           1             2   13     1      -0.6266593165E-04       4   13    1        -0.3817970925E-02      0.6663302252E-02

    ------------------------------------------------
       NWT REQUIRED            6 OUTER ITERATIONS 
       AND A TOTAL OF         10 INNER ITERATIONS.
    ------------------------------------------------

 NO OUTPUT CONTROL FOR STRESS PERIOD    7   TIME STEP   19
 
 SOLVING FOR HEAD 
                                                   Max.-Head-Change                         Max.-Flux-Residual
  Residual-Control   Outer-Iter.   Inner-Iter.     Column Row Layer    Maximum-Head-Change  Column Row Layer    Maximum-Flux-Residual          L2-NORM 
          0                 1           2             4   13     1       0.7413923646E-02       4   13    1         0.4772490455E+00      0.9054130632E+00
          0                 2           2             2   13     1      -0.7189365217E-02       4   13    1        -0.4517227011E+00      0.7789234216E+00
          0                 3           2             2   13     1      -0.4743453600E-03       2   13    1        -0.2753421386E-01      0.4891294325E-01
          0                 4           2             2   13     1      -0.2755482811E-03       4   13    1        -0.1694565561E-01      0.2943986659E-01
          0                 5           1             2   13     1      -0.1212056488E-03       4   13    1        -0.7366184493E-02      0.1287535190E-01
          0                 6           1             2   13     1      -0.6168906392E-04       4   13    1        -0.3759424195E-02      0.6561699548E-02

    ------------------------------------------------
       NWT REQUIRED            6 OUTER ITERATIONS 
       AND A TOTAL OF         10 INNER ITERATIONS.
    ------------------------------------------------

 NO OUTPUT CONTROL FOR STRESS PERIOD    7   TIME STEP   20
 
 SOLVING FOR HEAD 
                                                   Max.-Head-Change                         Max.-Flux-Residual
  Residual-Control   Outer-Iter.   Inner-Iter.     Column Row Layer    Maximum-Head-Change  Column Row Layer    Maximum-Flux-Residual          L2-NORM 
          0                 1           2             4   13     1       0.7466191841E-02       4   13    1         0.4805942150E+00      0.9129246539E+00
          0                 2           2             2   13     1      -0.7210403725E-02       4   13    1        -0.4522771284E+00      0.7804090109E+00
          0                 3           2             2   13     1      -0.4741475721E-03       2   13    1        -0.2752251189E-01      0.4891264056E-01
          0                 4           2             2   13     1      -0.2763063174E-03       4   13    1        -0.1697991098E-01      0.2950679303E-01
          0                 5           1             2   13     1      -0.1190730133E-03       4   13    1        -0.7232557689E-02      0.1264506219E-01
          0                 6           1             2   13     1      -0.6079671824E-04       4   13    1        -0.3702844244E-02      0.6463661939E-02

    ------------------------------------------------
       NWT REQUIRED            6 OUTER ITERATIONS 
       AND A TOTAL OF         10 INNER ITERATIONS.
    ------------------------------------------------

 NO OUTPUT CONTROL FOR STRESS PERIOD    7   TIME STEP   21
 
 SOLVING FOR HEAD 
                                                   Max.-Head-Change                         Max.-Flux-Residual
  Residual-Control   Outer-Iter.   Inner-Iter.     Column Row Layer    Maximum-Head-Change  Column Row Layer    Maximum-Flux-Residual          L2-NORM 
          0                 1           2             4   13     1       0.7508946246E-02       4   13    1         0.4833273233E+00      0.9195636489E+00
          0                 2           2             2   13     1      -0.7230035301E-02       4   13    1        -0.4527642723E+00      0.7817696290E+00
          0                 3           2             2   13     1      -0.4739545227E-03       2   13    1        -0.2751114409E-01      0.4890934015E-01
          0                 4           2             2   13     1      -0.2770011831E-03       4   13    1        -0.1701121380E-01      0.2957147977E-01
          0                 5           1             2   13     1      -0.1169693573E-03       4   13    1        -0.7104036231E-02      0.1242063490E-01
          0                 6           1             2   13     1      -0.5993022721E-04       4   13    1        -0.3645881543E-02      0.6368638895E-02

    ------------------------------------------------
       NWT REQUIRED            6 OUTER ITERATIONS 
       AND A TOTAL OF         10 INNER ITERATIONS.
    ------------------------------------------------

 NO OUTPUT CONTROL FOR STRESS PERIOD    7   TIME STEP   22
 
 SOLVING FOR HEAD 
                                                   Max.-Head-Change                         Max.-Flux-Residual
  Residual-Control   Outer-Iter.   Inner-Iter.     Column Row Layer    Maximum-Head-Change  Column Row Layer    Maximum-Flux-Residual          L2-NORM 
          0                 1           2             4   13     1       0.7544047801E-02       4   13    1         0.4855683974E+00      0.9254556135E+00
          0                 2           2             2   13     1      -0.7248305474E-02       4   13    1        -0.4531970562E+00      0.7830213719E+00
          0                 3           2             2   13     1      -0.4737006319E-03       2   13    1        -0.2749625761E-01      0.4890010325E-01
          0                 4           2             2   13     1      -0.2776256554E-03       4   13    1        -0.1704198732E-01      0.2963058512E-01
          0                 5           1             2   13     1      -0.1149974675E-03       4   13    1        -0.6976634877E-02      0.1220482282E-01
          0                 6           1             2   13     1      -0.5905814067E-04       4   13    1        -0.3594992275E-02      0.6277645323E-02

    ------------------------------------------------
       NWT REQUIRED            6 OUTER ITERATIONS 
       AND A TOTAL OF         10 INNER ITERATIONS.
    ------------------------------------------------

 NO OUTPUT CONTROL FOR STRESS PERIOD    7   TIME STEP   23
 
 SOLVING FOR HEAD 
                                                   Max.-Head-Change                         Max.-Flux-Residual
  Residual-Control   Outer-Iter.   Inner-Iter.     Column Row Layer    Maximum-Head-Change  Column Row Layer    Maximum-Flux-Residual          L2-NORM 
          0                 1           2             4   13     1       0.7572984630E-02       4   13    1         0.4874132735E+00      0.9306994433E+00
          0                 2           2             2   13     1      -0.7265342025E-02       4   13    1        -0.4535852762E+00      0.7841764920E+00
          0                 3           2             2   13     1      -0.4734180070E-03       2   13    1        -0.2747964663E-01      0.4889100326E-01
          0                 4           2             2   13     1      -0.2782477706E-03       4   13    1        -0.1707017559E-01      0.2968660152E-01
          0                 5           1             2   13     1      -0.1130269753E-03       4   13    1        -0.6854096278E-02      0.1199203824E-01
          0                 6           1             2   13     1      -0.5824981536E-04       4   13    1        -0.3542678980E-02      0.6188412106E-02

    ------------------------------------------------
       NWT REQUIRED            6 OUTER ITERATIONS 
       AND A TOTAL OF         10 INNER ITERATIONS.
    ------------------------------------------------

 NO OUTPUT CONTROL FOR STRESS PERIOD    7   TIME STEP   24
 
 SOLVING FOR HEAD 
                                                   Max.-Head-Change                         Max.-Flux-Residual
  Residual-Control   Outer-Iter.   Inner-Iter.     Column Row Layer    Maximum-Head-Change  Column Row Layer    Maximum-Flux-Residual          L2-NORM 
          0                 1           2             4   13     1       0.7596824731E-02       4   13    1         0.4889307981E+00      0.9353813631E+00
          0                 2           2             2   13     1      -0.7281189113E-02       4   13    1        -0.4539384228E+00      0.7852471474E+00
          0                 3           2             2   13     1      -0.4731409061E-03       2   13    1        -0.2746338911E-01      0.4887916640E-01
          0                 4           2             2   13     1      -0.2787864126E-03       4   13    1        -0.1709538071E-01      0.2973554444E-01
          0                 5           1             2   13     1      -0.1111500092E-03       4   13    1        -0.6735811723E-02      0.1178896067E-01
          0                 6           1             2   13     1      -0.5742967010E-04       4   13    1        -0.3494145296E-02      0.6101845641E-02

    ------------------------------------------------
       NWT REQUIRED            6 OUTER ITERATIONS 
       AND A TOTAL OF         10 INNER ITERATIONS.
    ------------------------------------------------

 NO OUTPUT CONTROL FOR STRESS PERIOD    7   TIME STEP   25
 
 SOLVING FOR HEAD 
                                                   Max.-Head-Change                         Max.-Flux-Residual
  Residual-Control   Outer-Iter.   Inner-Iter.     Column Row Layer    Maximum-Head-Change  Column Row Layer    Maximum-Flux-Residual          L2-NORM 
          0                 1           2             4   13     1       0.7616529310E-02       4   13    1         0.4901829055E+00      0.9395799688E+00
          0                 2           2             2   13     1      -0.7296074882E-02       4   13    1        -0.4542607564E+00      0.7862478556E+00
          0                 3           2             2   13     1      -0.4727527949E-03       2   13    1        -0.2744069531E-01      0.4885833513E-01
          0                 4           2             2   13     1      -0.2793271217E-03       4   13    1        -0.1711951238E-01      0.2978512186E-01
          0                 5           1             2   13     1      -0.1092873415E-03       4   13    1        -0.6621649840E-02      0.1158985986E-01
          0                 6           1             2   13     1      -0.5666892567E-04       4   13    1        -0.3444405804E-02      0.6018494930E-02

    ------------------------------------------------
       NWT REQUIRED            6 OUTER ITERATIONS 
       AND A TOTAL OF         10 INNER ITERATIONS.
    ------------------------------------------------

 NO OUTPUT CONTROL FOR STRESS PERIOD    7   TIME STEP   26
 
 SOLVING FOR HEAD 
                                                   Max.-Head-Change                         Max.-Flux-Residual
  Residual-Control   Outer-Iter.   Inner-Iter.     Column Row Layer    Maximum-Head-Change  Column Row Layer    Maximum-Flux-Residual          L2-NORM 
          0                 1           2             4   13     1       0.7632954809E-02       4   13    1         0.4912246226E+00      0.9433608948E+00
          0                 2           2             2   13     1      -0.7309894389E-02       4   13    1        -0.4545599738E+00      0.7871810912E+00
          0                 3           2             2   13     1      -0.4724397098E-03       2   13    1        -0.2742239298E-01      0.4883840907E-01
          0                 4           2             2   13     1      -0.2798026597E-03       4   13    1        -0.1714179862E-01      0.2982874808E-01
          0                 5           1             2   13     1      -0.1075229446E-03       4   13    1        -0.6510511104E-02      0.1139894101E-01
          0                 6           1             2   13     1      -0.5588679174E-04       4   13    1        -0.3397567698E-02      0.5935499973E-02

    ------------------------------------------------
       NWT REQUIRED            6 OUTER ITERATIONS 
       AND A TOTAL OF         10 INNER ITERATIONS.
    ------------------------------------------------

 NO OUTPUT CONTROL FOR STRESS PERIOD    7   TIME STEP   27
 
 SOLVING FOR HEAD 
                                                   Max.-Head-Change                         Max.-Flux-Residual
  Residual-Control   Outer-Iter.   Inner-Iter.     Column Row Layer    Maximum-Head-Change  Column Row Layer    Maximum-Flux-Residual          L2-NORM 
          0                 1           2             4   13     1       0.7646626905E-02       4   13    1         0.4920899692E+00      0.9467632503E+00
          0                 2           2             2   13     1      -0.7322857811E-02       4   13    1        -0.4548394905E+00      0.7880596297E+00
          0                 3           2             2   13     1      -0.4720513065E-03       2   13    1        -0.2739973333E-01      0.4881101038E-01
          0                 4           2             2   13     1      -0.2802315094E-03       4   13    1        -0.1716248848E-01      0.2986905219E-01
          0                 5           1             2   13     1      -0.1057872911E-03       4   13    1        -0.6402593996E-02      0.1121402243E-01
          0                 6           1             2   13     1      -0.5516578447E-04       4   13    1        -0.3352000280E-02      0.5855511020E-02

    ------------------------------------------------
       NWT REQUIRED            6 OUTER ITERATIONS 
       AND A TOTAL OF         10 INNER ITERATIONS.
    ------------------------------------------------

 NO OUTPUT CONTROL FOR STRESS PERIOD    7   TIME STEP   28
 
 SOLVING FOR HEAD 
                                                   Max.-Head-Change                         Max.-Flux-Residual
  Residual-Control   Outer-Iter.   Inner-Iter.     Column Row Layer    Maximum-Head-Change  Column Row Layer    Maximum-Flux-Residual          L2-NORM 
          0                 1           2             4   13     1       0.7658064674E-02       4   13    1         0.4928120550E+00      0.9498394174E+00
          0                 2           2             2   13     1      -0.7335001340E-02       4   13    1        -0.4551020646E+00      0.7888867028E+00
          0                 3           2             2   13     1      -0.4716334737E-03       2   13    1        -0.2737535714E-01      0.4878070885E-01
          0                 4           2             2   13     1      -0.2806438435E-03       4   13    1        -0.1718036341E-01      0.2990570368E-01
          0                 5           1             2   13     1      -0.1041126900E-03       4   13    1        -0.6298966340E-02      0.1103289613E-01
          0                 6           1             2   13     1      -0.5445198031E-04       4   13    1        -0.3307409024E-02      0.5780016210E-02

    ------------------------------------------------
       NWT REQUIRED            6 OUTER ITERATIONS 
       AND A TOTAL OF         10 INNER ITERATIONS.
    ------------------------------------------------

 NO OUTPUT CONTROL FOR STRESS PERIOD    7   TIME STEP   29
 
 SOLVING FOR HEAD 
                                                   Max.-Head-Change                         Max.-Flux-Residual
  Residual-Control   Outer-Iter.   Inner-Iter.     Column Row Layer    Maximum-Head-Change  Column Row Layer    Maximum-Flux-Residual          L2-NORM 
          0                 1           2             4   13     1       0.6109235348E-02       4   13    1         0.3929437441E+00      0.7871116671E+00
          0                 2           2             2   13     1      -0.7162321842E-02       4   13    1        -0.4432041705E+00      0.7687491946E+00
          0                 3           2             2   13     1      -0.4781917127E-03       2   13    1        -0.2773987440E-01      0.4947404653E-01
          0                 4           2             2   13     1      -0.2789566117E-03       4   13    1        -0.1704210474E-01      0.2968127633E-01
          0                 5           1             2   13     1      -0.1019727560E-03       4   13    1        -0.6160746103E-02      0.1079503929E-01
          0                 6           1             2   13     1      -0.5348097377E-04       4   13    1        -0.3242284803E-02      0.5667415182E-02

    ------------------------------------------------
       NWT REQUIRED            6 OUTER ITERATIONS 
       AND A TOTAL OF         10 INNER ITERATIONS.
    ------------------------------------------------

 NO OUTPUT CONTROL FOR STRESS PERIOD    7   TIME STEP   30



 STREAM LISTING     PERIOD      7   STEP       30

 LAYER ROW COL. STREAM  RCH.  FLOW INTO     FLOW TO   FLOW OUT OF   OVRLND.     DIRECT     STREAM       STREAM     STREAM     STREAM   STREAMBED  STREAMBED
                SEG.NO.  NO.  STRM. RCH.    AQUIFER    STRM. RCH.    RUNOFF     PRECIP       ET          HEAD       DEPTH      WIDTH   CONDCTNC.   GRADIENT

   1    1    1     1     1    5.7704E+01  3.6391E-01   5.7340E+01  0.000E+00  0.000E+00  0.000E+00  1.09454E+03  1.497E+00  1.798E+01  8.092E-02  1.499E+00
   1    2    2     1     2    5.7340E+01  5.6353E-01   5.6777E+01  0.000E+00  0.000E+00  0.000E+00  1.08955E+03  1.491E+00  1.792E+01  1.255E-01  1.497E+00
   1    3    3     1     3    5.6777E+01  4.8055E-01   5.6296E+01  0.000E+00  0.000E+00  0.000E+00  1.08390E+03  1.485E+00  1.786E+01  1.071E-01  1.495E+00
   1    3    4     1     4    5.6296E+01  4.4247E-01   5.5854E+01  0.000E+00  0.000E+00  0.000E+00  1.07889E+03  1.479E+00  1.780E+01  9.879E-02  1.493E+00
   1    4    5     2     1    5.3854E+01  3.8295E-01   5.3471E+01  0.000E+00  0.000E+00  0.000E+00  1.07384E+03  1.910E+00  1.200E+01  7.800E-02  1.637E+00
   1    5    6     2     2    5.3471E+01  2.9414E-01   5.3177E+01  0.000E+00  0.000E+00  0.000E+00  1.06841E+03  1.902E+00  1.200E+01  6.000E-02  1.634E+00
   1    6    6     2     3    5.3177E+01  2.9376E-01   5.2883E+01  0.000E+00  0.000E+00  0.000E+00  1.06369E+03  1.896E+00  1.200E+01  6.000E-02  1.632E+00
   1    7    6     2     4    5.2883E+01  2.9339E-01   5.2590E+01  0.000E+00  0.000E+00  0.000E+00  1.05897E+03  1.890E+00  1.200E+01  6.000E-02  1.630E+00
   1    8    6     2     5    5.2590E+01  2.9301E-01   5.2297E+01  0.000E+00  0.000E+00  0.000E+00  1.05424E+03  1.883E+00  1.200E+01  6.000E-02  1.628E+00
   1    3    5     3     1    2.0000E+00  2.8252E-01   1.7175E+00  0.000E+00  0.000E+00  0.000E+00  1.07555E+03  1.909E+00  9.636E+00  7.227E-02  1.955E+00
   1    3    6     3     2    1.7175E+00  2.4905E-01   1.4684E+00  0.000E+00  0.000E+00  0.000E+00  1.07264E+03  1.727E+00  8.909E+00  6.682E-02  1.864E+00
   1    3    7     3     3    1.4684E+00  1.9718E-01   1.2712E+00  0.000E+00  0.000E+00  0.000E+00  1.06987E+03  1.555E+00  8.218E+00  5.547E-02  1.777E+00
   1    4    8     3     4    1.2712E+00  2.2567E-01   1.0456E+00  0.000E+00  0.000E+00  0.000E+00  1.06682E+03  1.364E+00  7.455E+00  6.709E-02  1.682E+00
   1    5    8     3     5    1.0456E+00  1.5790E-01   8.8768E-01  0.000E+00  0.000E+00  0.000E+00  1.06362E+03  1.164E+00  6.655E+00  4.991E-02  1.582E+00
   1    6    8     3     6    8.8768E-01  5.5980E-02   8.3170E-01  0.000E+00  0.000E+00  0.000E+00  1.06158E+03  1.036E+00  6.145E+00  1.844E-02  1.518E+00
   1    5   10     4     1    1.0000E+01  9.0919E-02   9.9091E+00  0.000E+00  0.000E+00  0.000E+00  1.07836E+03  6.368E-01  1.000E+01  2.500E-02  1.212E+00
   1    5    9     4     2    9.9091E+00  1.8158E-01   9.7275E+00  0.000E+00  0.000E+00  0.000E+00  1.07154E+03  6.315E-01  1.000E+01  5.000E-02  1.211E+00
   1    6    8     4     3    9.7275E+00  1.2689E-01   9.6006E+00  0.000E+00  0.000E+00  0.000E+00  1.06381E+03  6.256E-01  1.000E+01  3.500E-02  1.209E+00
   1    6    8     5     1    1.0432E+01  2.2686E-01   1.0205E+01  0.000E+00  0.000E+00  0.000E+00  1.05868E+03  6.790E-01  1.542E+01  6.166E-02  1.226E+00
   1    7    7     5     2    1.0205E+01  2.7894E-01   9.9265E+00  0.000E+00  0.000E+00  0.000E+00  1.05417E+03  6.732E-01  1.519E+01  7.594E-02  1.224E+00
   1    8    7     5     3    9.9265E+00  1.9221E-01   9.7343E+00  0.000E+00  0.000E+00  0.000E+00  1.04992E+03  6.676E-01  1.497E+01  5.241E-02  1.223E+00
   1    8    6     5     4    9.7343E+00  1.3577E-01   9.5985E+00  0.000E+00  0.000E+00  0.000E+00  1.04691E+03  6.637E-01  1.482E+01  3.706E-02  1.221E+00
   1    9    6     6     1    3.9658E+01  2.7655E-01   3.9381E+01  0.000E+00  0.000E+00  0.000E+00  1.04434E+03  1.609E+00  1.200E+01  6.000E-02  1.536E+00
   1   10    7     6     2    3.9381E+01  2.7615E-01   3.9105E+01  0.000E+00  0.000E+00  0.000E+00  1.03978E+03  1.602E+00  1.200E+01  6.000E-02  1.534E+00
   1   11    7     6     3    3.9105E+01  2.7574E-01   3.8829E+01  0.000E+00  0.000E+00  0.000E+00  1.03523E+03  1.596E+00  1.200E+01  6.000E-02  1.532E+00
   1   12    7     6     4    3.8829E+01  2.7534E-01   3.8554E+01  0.000E+00  0.000E+00  0.000E+00  1.03068E+03  1.589E+00  1.200E+01  6.000E-02  1.530E+00
   1   13    7     6     5    3.8554E+01  7.9083E-03   3.8546E+01  0.000E+00  0.000E+00  0.000E+00  1.02749E+03  1.585E+00  1.200E+01  2.400E-02  1.098E-01
   1   14    9     7     1    1.5000E+02  1.3359E+00   1.4866E+02  0.000E+00  0.000E+00  0.000E+00  1.03987E+03  2.288E+00  5.529E+01  5.593E-01  7.962E-01
   1   13    8     7     2    1.4866E+02  1.8181E+00   1.4685E+02  0.000E+00  0.000E+00  0.000E+00  1.03478E+03  2.279E+00  5.526E+01  6.148E-01  9.858E-01
   1   13    7     7     3    1.4685E+02  1.4101E+00   1.4544E+02  0.000E+00  0.000E+00  0.000E+00  1.02969E+03  2.271E+00  5.522E+01  5.585E-01  8.417E-01
   1   13    6     8     1    1.8398E+02  9.0540E-01   1.8308E+02  0.000E+00  0.000E+00  0.000E+00  1.02491E+03  3.039E+00  4.406E+01  4.490E-01  6.722E-01
   1   13    5     8     2    1.8308E+02  1.3403E-01   1.8294E+02  0.000E+00  0.000E+00  0.000E+00  1.01866E+03  3.035E+00  4.401E+01  4.485E-01  9.961E-02
   1   13    4     8     3    1.8294E+02 -2.6404E+00   1.8558E+02  0.000E+00  0.000E+00  0.000E+00  1.01242E+03  3.043E+00  4.413E+01  4.497E+00 -1.957E-01
   1   13    3     8     4    1.8558E+02 -3.7297E+00   1.8931E+02  0.000E+00  0.000E+00  0.000E+00  1.00619E+03  3.063E+00  4.441E+01  4.526E+00 -2.747E-01
   1   13    2     8     5    1.8931E+02 -2.6907E+00   1.9200E+02  0.000E+00  0.000E+00  0.000E+00  9.99957E+02  3.082E+00  4.470E+01  4.555E+00 -1.969E-01
   1   13    1     8     6    1.9200E+02 -2.0702E+00   1.9407E+02  0.000E+00  0.000E+00  0.000E+00  9.94972E+02  3.097E+00  4.490E+01  2.746E+00 -2.513E-01
   1    8    6     9     1    2.2237E+01  0.0000E+00   2.2237E+01  0.000E+00  0.000E+00  0.000E+00  1.08240E+03  3.652E+00  4.000E+00  0.000E+00  2.217E+00
   1    8    5     9     2    2.2237E+01  0.0000E+00   2.2237E+01  0.000E+00  0.000E+00  0.000E+00  1.08190E+03  3.652E+00  4.000E+00  0.000E+00  2.217E+00





UNSATURATED ZONE PACKAGE VOLUMETRIC BUDGET FOR  TIME STEP    30 STRESS PERIOD    7
  ------------------------------------------------------------------------------



     CUMULATIVE VOLUMES      L**3       RATES FOR THIS TIME STEP      L**3/T
     ------------------                 ------------------------

           IN:                                      IN:
           ---                                      ---
        INFILTRATION =   155435970.4138          INFILTRATION =          26.6451

          OUT:                                     OUT:
          ----                                     ----
              UZF ET =   135939360.9719                UZF ET =          26.5656
        UZF RECHARGE =       73224.0000          UZF RECHARGE =       0.0000E+00

            IN - OUT =    19423385.4419              IN - OUT =       7.9513E-02

          STORAGE:                                 STORAGE:
          --------                                 --------
      STORAGE CHANGE =    19423384.8528        STORAGE CHANGE =       7.9513E-02

 PERCENT DISCREPANCY IS DIFFERENCE BETWEEN IN-OUT MINUS CHANGE IN STORAGE
 DIVIDED BY THE AVERAGE OF IN AND OUT TIMES 100

 PERCENT DISCREPANCY =           0.00     PERCENT DISCREPANCY =           0.00






1
  VOLUMETRIC BUDGET FOR AGRICULTURAL FIELDS AT TIME STEP   30, STRESS PERIOD   7
  ------------------------------------------------------------------------------

     CUMULATIVE VOLUMES      L**3       RATES FOR THIS TIME STEP      L**3/T
     ------------------                 ------------------------

           IN:                                      IN:
           ---                                      ---
               AG WELLS  =           0.0000                 AG WELLS  =           0.0000
      DIVERSION SEGMENTS =    85810680.0000        DIVERSION SEGMENTS =          22.2372
           GW IRRIGATION =           0.0000             GW IRRIGATION =           0.0000
           SW IRRIGATION =           0.0000             SW IRRIGATION =           0.0000
        SYSTEM LOSSES GW =           0.0000          SYSTEM LOSSES GW =           0.0000
        SYSTEM LOSSES SW =           0.0000          SYSTEM LOSSES SW =           0.0000

                TOTAL IN =    85810680.0000                  TOTAL IN =          22.2372

          OUT:                                     OUT:
          ----                                     ----
               AG WELLS  =           0.0000                 AG WELLS  =           0.0000
      DIVERSION SEGMENTS =           0.0000        DIVERSION SEGMENTS =           0.0000
           GW IRRIGATION =           0.0000             GW IRRIGATION =           0.0000
           SW IRRIGATION =    85812392.0000             SW IRRIGATION =          22.2376
        SYSTEM LOSSES GW =           0.0000          SYSTEM LOSSES GW =           0.0000
        SYSTEM LOSSES SW =           0.0000          SYSTEM LOSSES SW =           0.0000

               TOTAL OUT =    85812392.0000                 TOTAL OUT =          22.2376

                IN - OUT =       -1712.0000                  IN - OUT =      -4.4250E-04

     PERCENT DISCREPANCY =          -0.00         PERCENT DISCREPANCY =          -0.00



1
  VOLUMETRIC BUDGET FOR ENTIRE MODEL AT END OF TIME STEP   30, STRESS PERIOD   7
  ------------------------------------------------------------------------------

     CUMULATIVE VOLUMES      L**3       RATES FOR THIS TIME STEP      L**3/T
     ------------------                 ------------------------

           IN:                                      IN:
           ---                                      ---
             STORAGE     =    11821112.0000               STORAGE     =           0.7599
       CONSTANT HEAD     =           0.0000         CONSTANT HEAD     =           0.0000
     HEAD DEP BOUNDS     =     4533349.0000       HEAD DEP BOUNDS     =           0.2858
      STREAM LEAKAGE     =   194454896.0000        STREAM LEAKAGE     =          12.5245
        UZF RECHARGE     =       73223.9531          UZF RECHARGE     =           0.0000
               GW ET     =           0.0000                 GW ET     =           0.0000
     SURFACE LEAKAGE     =           0.0000       SURFACE LEAKAGE     =           0.0000
           AG WELLS      =           0.0000             AG WELLS      =           0.0000

                TOTAL IN =   210882576.0000                  TOTAL IN =          13.5701

          OUT:                                     OUT:
          ----                                     ----
             STORAGE     =    37551440.0000               STORAGE     =           2.0154
       CONSTANT HEAD     =           0.0000         CONSTANT HEAD     =           0.0000
     HEAD DEP BOUNDS     =     4633178.0000       HEAD DEP BOUNDS     =           0.2936
      STREAM LEAKAGE     =   167164032.0000        STREAM LEAKAGE     =          11.1311
        UZF RECHARGE     =           0.0000          UZF RECHARGE     =           0.0000
               GW ET     =     1527852.7500                 GW ET     =           0.1291
     SURFACE LEAKAGE     =           0.0000       SURFACE LEAKAGE     =           0.0000
           AG WELLS      =           0.0000             AG WELLS      =           0.0000

               TOTAL OUT =   210876496.0000                 TOTAL OUT =          13.5692

                IN - OUT =        6080.0000                  IN - OUT =       9.1267E-04

     PERCENT DISCREPANCY =           0.00         PERCENT DISCREPANCY =           0.01






         TIME SUMMARY AT END OF TIME STEP   30 IN STRESS PERIOD    7
                    SECONDS     MINUTES      HOURS       DAYS        YEARS
                    -----------------------------------------------------------
   TIME STEP LENGTH  87667.      1461.1      24.352      1.0147     2.77799E-03
 STRESS PERIOD TIME 2.63000E+06  43833.      730.56      30.440     8.33397E-02
         TOTAL TIME 1.58664E+07 2.64440E+05  4407.3      183.64     0.50278    
1
1
                            STRESS PERIOD NO.    8, LENGTH =   2630000.    
                            -----------------------------------------------

                              NUMBER OF TIME STEPS =    30

                               MULTIPLIER FOR DELT =     1.000

                            INITIAL TIME STEP SIZE =   87666.66    

 REUSING NON-PARAMETER GHB CELLS FROM LAST STRESS PERIOD

      2 GHB CELLS

 REUSING STREAM SEGMENT DATA FROM LAST STRESS PERIOD



            AREAL INFILTRATION RATE
 READING ON UNIT   19 WITH FORMAT: (10F4.0)            

            1           2           3           4           5           6           7           8           9          10
 ........................................................................................................................
   1   1.2000E-09   0.000       0.000       0.000       0.000       0.000       0.000       0.000       0.000       0.000    
   2   2.1000E-09  2.0000E-09  8.0000E-10  8.5000E-09   0.000       0.000       0.000       0.000       0.000       0.000    
   3   5.0000E-10  1.1000E-09  8.8000E-09  5.5000E-09   0.000       0.000       0.000       0.000       0.000       0.000    
   4   8.5000E-09  1.1000E-09  1.1000E-09  1.1000E-09  2.0000E-09   0.000       0.000       0.000       0.000       0.000    
   5   8.5000E-09  1.1000E-09  1.1000E-09  1.1000E-09  1.1000E-09   0.000       0.000       0.000       0.000       0.000    
   6   8.5000E-09  5.2000E-09  2.1000E-09  1.1000E-09  1.5000E-09   0.000       0.000       0.000       0.000       0.000    
   7   8.5000E-09  5.2000E-09  2.1000E-09  1.2000E-09  2.0000E-09   0.000       0.000       0.000       0.000       0.000    
   8   5.0000E-10  5.2000E-09  2.1000E-09  1.2000E-09  5.0000E-09   0.000       0.000       0.000       0.000       0.000    
   9   5.0000E-10  5.2000E-09  2.1000E-09  1.2000E-09  5.0000E-09   0.000       0.000       0.000       0.000       0.000    
  10   5.0000E-10  5.2000E-09  2.1000E-09  1.2000E-09  5.8000E-09   0.000       0.000       0.000       0.000       0.000    
  11   1.0000E-10  1.1000E-09  1.1000E-09  1.2000E-09  5.0000E-09   0.000       0.000       0.000       0.000       0.000    
  12   1.1000E-09  1.1000E-09  1.1000E-09  1.1000E-09  2.0000E-09   0.000       0.000       0.000       0.000       0.000    
  13   1.1000E-09  2.2000E-09  2.2000E-09  2.1000E-09  1.0000E-09   0.000       0.000       0.000       0.000       0.000    
  14   2.0000E-10  5.5000E-09  5.5000E-09  5.2000E-09  1.0000E-09   0.000       0.000       0.000       0.000       0.000    
  15    0.000      8.8000E-09  8.8000E-09   0.000       0.000       0.000       0.000       0.000       0.000       0.000    

                  ET RATE =  4.000000E-07

 USING ET EXTINCTION DEPTH FROM PREVIOUS STRESS PERIOD. CURRENT PERIOD IS:       8

 USING EXTINCTION WATER CONTENT FROM PREVIOUS STRESS PERIOD. CURRENT PERIOD IS:       8

 USING AIR ENTRY PRESSURE FROM PREVIOUS STRESS PERIOD. CURRENT PERIOD IS:       8

 USING ROOT PRESSURE HEAD FROM PREVIOUS STRESS PERIOD. CURRENT PERIOD IS:       8

 USING ROOT ACTIVITY FROM PREVIOUS STRESS PERIOD. CURRENT PERIOD IS:       8

 PROCESSING AG STRESS PERIOD DATA

 READING AG STRESS PERIOD DATA

 READING IRRIGATION SEGMENT

 READING IRRIGATION WELL

 READING SUPPLEMENTAL WELL

 END PROCESSING AG STRESS PERIOD DATA OPTIONS
 
 SOLVING FOR HEAD 
                                                   Max.-Head-Change                         Max.-Flux-Residual
  Residual-Control   Outer-Iter.   Inner-Iter.     Column Row Layer    Maximum-Head-Change  Column Row Layer    Maximum-Flux-Residual          L2-NORM 
          0                 1           2             2   13     1       0.5511562767E-02       2   13    1         0.3129124341E+00      0.7992436032E+00
          0                 2           2             2   13     1      -0.1865834742E-01       4   13    1        -0.1131478426E+01      0.2765237517E+01
          0                 3           2             4    7     1      -0.3652614257E-02       4    8    1        -0.1908595824E+00      0.4977546476E+00
          0                 4           2             4    7     1      -0.1680770829E-02       5    6    1        -0.8781972731E-01      0.2153332233E+00
          0                 5           2             4    7     1      -0.8550348801E-03       4    7    1        -0.4466992793E-01      0.1094166518E+00
          0                 6           2             4    7     1      -0.4260958524E-03       4    7    1        -0.2226068428E-01      0.5452673079E-01
          0                 7           2             4    7     1      -0.2132220315E-03       4    7    1        -0.1113943886E-01      0.2728558136E-01
          0                 8           1             4    7     1      -0.1065913240E-03       4    7    1        -0.5568690484E-02      0.1364027692E-01
          0                 9           1             4    7     1      -0.5331816699E-04       4    7    1        -0.2785521026E-02      0.6823017925E-02

    ------------------------------------------------
       NWT REQUIRED            9 OUTER ITERATIONS 
       AND A TOTAL OF         16 INNER ITERATIONS.
    ------------------------------------------------

 OUTPUT CONTROL FOR STRESS PERIOD    8   TIME STEP    1
    PRINT BUDGET
    SAVE BUDGET
 UBDSV1 SAVING "         STORAGE" ON UNIT 102 AT TIME STEP  1, STRESS PERIOD   8
 UBDSV2 SAVING "   CONSTANT HEAD" ON UNIT 102 AT TIME STEP  1, STRESS PERIOD   8
 UBDSV1 SAVING "FLOW RIGHT FACE " ON UNIT 102 AT TIME STEP  1, STRESS PERIOD   8
 UBDSV1 SAVING "FLOW FRONT FACE " ON UNIT 102 AT TIME STEP  1, STRESS PERIOD   8

  HEAD DEP BOUNDS   PERIOD    8   STEP     1
 BOUNDARY      1   LAYER   1   ROW    13   COL     1   RATE   -0.293303    
 BOUNDARY      2   LAYER   1   ROW    14   COL     9   RATE    0.285764    



 STREAM LISTING     PERIOD      8   STEP        1

 LAYER ROW COL. STREAM  RCH.  FLOW INTO     FLOW TO   FLOW OUT OF   OVRLND.     DIRECT     STREAM       STREAM     STREAM     STREAM   STREAMBED  STREAMBED
                SEG.NO.  NO.  STRM. RCH.    AQUIFER    STRM. RCH.    RUNOFF     PRECIP       ET          HEAD       DEPTH      WIDTH   CONDCTNC.   GRADIENT

   1    1    1     1     1    5.6250E+01  3.5875E-01   5.5891E+01  0.000E+00  0.000E+00  0.000E+00  1.09453E+03  1.479E+00  1.780E+01  8.010E-02  1.493E+00
   1    2    2     1     2    5.5891E+01  5.5550E-01   5.5336E+01  0.000E+00  0.000E+00  0.000E+00  1.08953E+03  1.473E+00  1.774E+01  1.242E-01  1.491E+00
   1    3    3     1     3    5.5336E+01  4.7368E-01   5.4862E+01  0.000E+00  0.000E+00  0.000E+00  1.08389E+03  1.467E+00  1.767E+01  1.060E-01  1.489E+00
   1    3    4     1     4    5.4862E+01  4.3613E-01   5.4426E+01  0.000E+00  0.000E+00  0.000E+00  1.07887E+03  1.461E+00  1.762E+01  9.777E-02  1.487E+00
   1    4    5     2     1    5.2426E+01  3.8056E-01   5.2046E+01  0.000E+00  0.000E+00  0.000E+00  1.07381E+03  1.879E+00  1.200E+01  7.800E-02  1.626E+00
   1    5    6     2     2    5.2046E+01  2.9230E-01   5.1753E+01  0.000E+00  0.000E+00  0.000E+00  1.06838E+03  1.872E+00  1.200E+01  6.000E-02  1.624E+00
   1    6    6     2     3    5.1753E+01  2.9192E-01   5.1461E+01  0.000E+00  0.000E+00  0.000E+00  1.06366E+03  1.865E+00  1.200E+01  6.000E-02  1.622E+00
   1    7    6     2     4    5.1461E+01  2.9154E-01   5.1170E+01  0.000E+00  0.000E+00  0.000E+00  1.05893E+03  1.859E+00  1.200E+01  6.000E-02  1.620E+00
   1    8    6     2     5    5.1170E+01  2.9116E-01   5.0879E+01  0.000E+00  0.000E+00  0.000E+00  1.05421E+03  1.853E+00  1.200E+01  6.000E-02  1.618E+00
   1    3    5     3     1    2.0000E+00  2.8252E-01   1.7175E+00  0.000E+00  0.000E+00  0.000E+00  1.07555E+03  1.909E+00  9.636E+00  7.227E-02  1.955E+00
   1    3    6     3     2    1.7175E+00  2.4905E-01   1.4684E+00  0.000E+00  0.000E+00  0.000E+00  1.07264E+03  1.727E+00  8.909E+00  6.682E-02  1.864E+00
   1    3    7     3     3    1.4684E+00  1.9718E-01   1.2712E+00  0.000E+00  0.000E+00  0.000E+00  1.06987E+03  1.555E+00  8.218E+00  5.547E-02  1.777E+00
   1    4    8     3     4    1.2712E+00  2.2567E-01   1.0456E+00  0.000E+00  0.000E+00  0.000E+00  1.06682E+03  1.364E+00  7.455E+00  6.709E-02  1.682E+00
   1    5    8     3     5    1.0456E+00  1.5790E-01   8.8768E-01  0.000E+00  0.000E+00  0.000E+00  1.06362E+03  1.164E+00  6.655E+00  4.991E-02  1.582E+00
   1    6    8     3     6    8.8768E-01  5.5980E-02   8.3170E-01  0.000E+00  0.000E+00  0.000E+00  1.06158E+03  1.036E+00  6.145E+00  1.844E-02  1.518E+00
   1    5   10     4     1    1.0000E+01  9.0919E-02   9.9091E+00  0.000E+00  0.000E+00  0.000E+00  1.07836E+03  6.368E-01  1.000E+01  2.500E-02  1.212E+00
   1    5    9     4     2    9.9091E+00  1.8158E-01   9.7275E+00  0.000E+00  0.000E+00  0.000E+00  1.07154E+03  6.315E-01  1.000E+01  5.000E-02  1.211E+00
   1    6    8     4     3    9.7275E+00  1.2689E-01   9.6006E+00  0.000E+00  0.000E+00  0.000E+00  1.06381E+03  6.256E-01  1.000E+01  3.500E-02  1.209E+00
   1    6    8     5     1    1.0432E+01  2.2686E-01   1.0205E+01  0.000E+00  0.000E+00  0.000E+00  1.05868E+03  6.790E-01  1.542E+01  6.166E-02  1.226E+00
   1    7    7     5     2    1.0205E+01  2.7894E-01   9.9265E+00  0.000E+00  0.000E+00  0.000E+00  1.05417E+03  6.732E-01  1.519E+01  7.594E-02  1.224E+00
   1    8    7     5     3    9.9265E+00  1.9221E-01   9.7343E+00  0.000E+00  0.000E+00  0.000E+00  1.04992E+03  6.676E-01  1.497E+01  5.241E-02  1.223E+00
   1    8    6     5     4    9.7343E+00  1.3577E-01   9.5985E+00  0.000E+00  0.000E+00  0.000E+00  1.04691E+03  6.637E-01  1.482E+01  3.706E-02  1.221E+00
   1    9    6     6     1    9.5985E+00  2.2097E-01   9.3776E+00  0.000E+00  0.000E+00  0.000E+00  1.04341E+03  6.828E-01  1.200E+01  6.000E-02  1.228E+00
   1   10    7     6     2    9.3776E+00  2.2039E-01   9.1572E+00  0.000E+00  0.000E+00  0.000E+00  1.03885E+03  6.732E-01  1.200E+01  6.000E-02  1.224E+00
   1   11    7     6     3    9.1572E+00  2.1981E-01   8.9374E+00  0.000E+00  0.000E+00  0.000E+00  1.03430E+03  6.636E-01  1.200E+01  6.000E-02  1.221E+00
   1   12    7     6     4    8.9374E+00  2.1923E-01   8.7181E+00  0.000E+00  0.000E+00  0.000E+00  1.02974E+03  6.539E-01  1.200E+01  6.000E-02  1.218E+00
   1   13    7     6     5    8.7181E+00 -1.4431E-01   8.8624E+00  0.000E+00  0.000E+00  0.000E+00  1.02656E+03  6.522E-01  1.200E+01  2.400E-01 -2.004E-01
   1   14    9     7     1    1.5000E+02  1.3359E+00   1.4866E+02  0.000E+00  0.000E+00  0.000E+00  1.03987E+03  2.288E+00  5.529E+01  5.593E-01  7.962E-01
   1   13    8     7     2    1.4866E+02  1.8181E+00   1.4685E+02  0.000E+00  0.000E+00  0.000E+00  1.03478E+03  2.279E+00  5.526E+01  6.148E-01  9.858E-01
   1   13    7     7     3    1.4685E+02  1.4115E+00   1.4543E+02  0.000E+00  0.000E+00  0.000E+00  1.02969E+03  2.271E+00  5.522E+01  5.585E-01  8.425E-01
   1   13    6     8     1    1.5430E+02  7.6685E-01   1.5353E+02  0.000E+00  0.000E+00  0.000E+00  1.02472E+03  2.844E+00  4.124E+01  4.203E-01  6.082E-01
   1   13    5     8     2    1.5353E+02  4.4816E-02   1.5349E+02  0.000E+00  0.000E+00  0.000E+00  1.01847E+03  2.841E+00  4.120E+01  4.198E-01  3.558E-02
   1   13    4     8     3    1.5349E+02 -3.2338E+00   1.5672E+02  0.000E+00  0.000E+00  0.000E+00  1.01223E+03  2.852E+00  4.136E+01  4.215E+00 -2.558E-01
   1   13    3     8     4    1.5672E+02 -4.2499E+00   1.6097E+02  0.000E+00  0.000E+00  0.000E+00  1.00600E+03  2.878E+00  4.173E+01  4.253E+00 -3.331E-01
   1   13    2     8     5    1.6097E+02 -3.2516E+00   1.6422E+02  0.000E+00  0.000E+00  0.000E+00  9.99778E+02  2.903E+00  4.210E+01  4.290E+00 -2.527E-01
   1   13    1     8     6    1.6422E+02 -2.3870E+00   1.6661E+02  0.000E+00  0.000E+00  0.000E+00  9.94797E+02  2.922E+00  4.237E+01  2.591E+00 -3.071E-01
   1    8    6     9     1    5.0879E+01  0.0000E+00   5.0879E+01  0.000E+00  0.000E+00  0.000E+00  1.08476E+03  6.014E+00  4.000E+00  0.000E+00  3.005E+00
   1    8    5     9     2    5.0879E+01  0.0000E+00   5.0879E+01  0.000E+00  0.000E+00  0.000E+00  1.08426E+03  6.014E+00  4.000E+00  0.000E+00  3.005E+00



 UBDSV3 SAVING "           GW ET" ON UNIT  61 AT TIME STEP  1, STRESS PERIOD   8
 UBDSV3 SAVING "    UZF RECHARGE" ON UNIT  61 AT TIME STEP  1, STRESS PERIOD   8
 UBDSV3 SAVING " SURFACE LEAKAGE" ON UNIT  61 AT TIME STEP  1, STRESS PERIOD   8
 UBDSV3 SAVING "       HORT+DUNN" ON UNIT  61 AT TIME STEP  1, STRESS PERIOD   8
 UBDSV3 SAVING "  STORAGE CHANGE" ON UNIT  61 AT TIME STEP  1, STRESS PERIOD   8


UNSATURATED ZONE PACKAGE VOLUMETRIC BUDGET FOR  TIME STEP     1 STRESS PERIOD    8
  ------------------------------------------------------------------------------



     CUMULATIVE VOLUMES      L**3       RATES FOR THIS TIME STEP      L**3/T
     ------------------                 ------------------------

           IN:                                      IN:
           ---                                      ---
        INFILTRATION =   161065531.4832          INFILTRATION =          64.2155

          OUT:                                     OUT:
          ----                                     ----
              UZF ET =   141558572.7288                UZF ET =          64.0975
        UZF RECHARGE =       73224.0000          UZF RECHARGE =       0.0000E+00

            IN - OUT =    19433734.7544              IN - OUT =           0.1181

          STORAGE:                                 STORAGE:
          --------                                 --------
      STORAGE CHANGE =    19433734.0217        STORAGE CHANGE =           0.1181

 PERCENT DISCREPANCY IS DIFFERENCE BETWEEN IN-OUT MINUS CHANGE IN STORAGE
 DIVIDED BY THE AVERAGE OF IN AND OUT TIMES 100

 PERCENT DISCREPANCY =           0.00     PERCENT DISCREPANCY =          -0.00






 

            AG WELLS      PERIOD    8   STEP   1
 AG WELL      1   LAYER   1   ROW     6   COL     4   RATE    -1.48806    
 AG WELL      2   LAYER   1   ROW     6   COL     5   RATE    -1.48806    
 AG WELL      3   LAYER   1   ROW     7   COL     4   RATE    -1.48806    
 AG WELL      4   LAYER   1   ROW     7   COL     5   RATE    -1.48806    
 AG WELL      5   LAYER   1   ROW     8   COL     4   RATE    -1.48806    
 AG WELL      6   LAYER   1   ROW     8   COL     5   RATE    -1.48806    
 
 

   DIVERSION SEGMENTS     PERIOD    8   STEP   1
 SEGMENT      9   RATE     50.8787    
 
 

        SW IRRIGATION     PERIOD    8   STEP   1
 SEGMENT      9   ROW     6   COL     4   RATE     8.47995    
 SEGMENT      9   ROW     6   COL     5   RATE     8.47995    
 SEGMENT      9   ROW     7   COL     4   RATE     8.47995    
 SEGMENT      9   ROW     7   COL     5   RATE     8.47995    
 SEGMENT      9   ROW     8   COL     4   RATE     8.47995    
 SEGMENT      9   ROW     8   COL     5   RATE     8.47995    
 
 

        GW IRRIGATION     PERIOD    8   STEP   1
 AG WELL      1   ROW     6   COL     4   RATE     1.48806    
 AG WELL      2   ROW     6   COL     5   RATE     1.48806    
 AG WELL      3   ROW     7   COL     4   RATE     1.48806    
 AG WELL      4   ROW     7   COL     5   RATE     1.48806    
 AG WELL      5   ROW     8   COL     4   RATE     1.48806    
 AG WELL      6   ROW     8   COL     5   RATE     1.48806    
 
1
  VOLUMETRIC BUDGET FOR AGRICULTURAL FIELDS AT TIME STEP    1, STRESS PERIOD   8
  ------------------------------------------------------------------------------

     CUMULATIVE VOLUMES      L**3       RATES FOR THIS TIME STEP      L**3/T
     ------------------                 ------------------------

           IN:                                      IN:
           ---                                      ---
               AG WELLS  =      782719.2500                 AG WELLS  =           8.9284
      DIVERSION SEGMENTS =    90271040.0000        DIVERSION SEGMENTS =          50.8787
           GW IRRIGATION =           0.0000             GW IRRIGATION =           0.0000
           SW IRRIGATION =           0.0000             SW IRRIGATION =           0.0000
        SYSTEM LOSSES GW =           0.0000          SYSTEM LOSSES GW =           0.0000
        SYSTEM LOSSES SW =           0.0000          SYSTEM LOSSES SW =           0.0000

                TOTAL IN =    91053760.0000                  TOTAL IN =          59.8070

          OUT:                                     OUT:
          ----                                     ----
               AG WELLS  =           0.0000                 AG WELLS  =           0.0000
      DIVERSION SEGMENTS =           0.0000        DIVERSION SEGMENTS =           0.0000
           GW IRRIGATION =      782719.2500             GW IRRIGATION =           8.9284
           SW IRRIGATION =    90272840.0000             SW IRRIGATION =          50.8797
        SYSTEM LOSSES GW =           0.0000          SYSTEM LOSSES GW =           0.0000
        SYSTEM LOSSES SW =           0.0000          SYSTEM LOSSES SW =           0.0000

               TOTAL OUT =    91055560.0000                 TOTAL OUT =          59.8080

                IN - OUT =       -1800.0000                  IN - OUT =      -1.0147E-03

     PERCENT DISCREPANCY =          -0.00         PERCENT DISCREPANCY =          -0.00



1
  VOLUMETRIC BUDGET FOR ENTIRE MODEL AT END OF TIME STEP    1, STRESS PERIOD   8
  ------------------------------------------------------------------------------

     CUMULATIVE VOLUMES      L**3       RATES FOR THIS TIME STEP      L**3/T
     ------------------                 ------------------------

           IN:                                      IN:
           ---                                      ---
             STORAGE     =    12863101.0000               STORAGE     =          11.8858
       CONSTANT HEAD     =           0.0000         CONSTANT HEAD     =           0.0000
     HEAD DEP BOUNDS     =     4558401.0000       HEAD DEP BOUNDS     =           0.2858
      STREAM LEAKAGE     =   195509568.0000        STREAM LEAKAGE     =          12.0306
        UZF RECHARGE     =       73223.9531          UZF RECHARGE     =           0.0000
               GW ET     =           0.0000                 GW ET     =           0.0000
     SURFACE LEAKAGE     =           0.0000       SURFACE LEAKAGE     =           0.0000
           AG WELLS      =           0.0000             AG WELLS      =           0.0000

                TOTAL IN =   213004288.0000                  TOTAL IN =          24.2021

          OUT:                                     OUT:
          ----                                     ----
             STORAGE     =    37697380.0000               STORAGE     =           1.6647
       CONSTANT HEAD     =           0.0000         CONSTANT HEAD     =           0.0000
     HEAD DEP BOUNDS     =     4658891.0000       HEAD DEP BOUNDS     =           0.2933
      STREAM LEAKAGE     =   168327072.0000        STREAM LEAKAGE     =          13.2666
        UZF RECHARGE     =           0.0000          UZF RECHARGE     =           0.0000
               GW ET     =     1532013.0000                 GW ET     =       4.7455E-02
     SURFACE LEAKAGE     =           0.0000       SURFACE LEAKAGE     =           0.0000
           AG WELLS      =      782719.2500             AG WELLS      =           8.9284

               TOTAL OUT =   212998080.0000                 TOTAL OUT =          24.2005

                IN - OUT =        6208.0000                  IN - OUT =       1.6670E-03

     PERCENT DISCREPANCY =           0.00         PERCENT DISCREPANCY =           0.01






         TIME SUMMARY AT END OF TIME STEP    1 IN STRESS PERIOD    8
                    SECONDS     MINUTES      HOURS       DAYS        YEARS
                    -----------------------------------------------------------
   TIME STEP LENGTH  87667.      1461.1      24.352      1.0147     2.77799E-03
 STRESS PERIOD TIME  87667.      1461.1      24.352      1.0147     2.77799E-03
         TOTAL TIME 1.59541E+07 2.65901E+05  4431.7      184.65     0.50555    
1
 
 SOLVING FOR HEAD 
                                                   Max.-Head-Change                         Max.-Flux-Residual
  Residual-Control   Outer-Iter.   Inner-Iter.     Column Row Layer    Maximum-Head-Change  Column Row Layer    Maximum-Flux-Residual          L2-NORM 
          0                 1           2             4    7     1      -0.2721933759E-01       4    7    1        -0.1422875491E+01      0.3540961437E+01
          0                 2           2             2   13     1      -0.1875220918E-01       4   13    1        -0.1207428026E+01      0.2061377349E+01
          0                 3           2             4   13     1      -0.2764987816E-02       4   13    1        -0.1640405595E+00      0.2260516444E+00
          0                 4           2             4   13     1       0.1857525785E-03       4   13    1         0.1132739145E-01      0.1877427437E-01
          0                 5           1             4    7     1      -0.4757583443E-04       4    7    1        -0.2626582894E-02      0.6457936210E-02

    ------------------------------------------------
       NWT REQUIRED            5 OUTER ITERATIONS 
       AND A TOTAL OF          9 INNER ITERATIONS.
    ------------------------------------------------

 NO OUTPUT CONTROL FOR STRESS PERIOD    8   TIME STEP    2
 
 SOLVING FOR HEAD 
                                                   Max.-Head-Change                         Max.-Flux-Residual
  Residual-Control   Outer-Iter.   Inner-Iter.     Column Row Layer    Maximum-Head-Change  Column Row Layer    Maximum-Flux-Residual          L2-NORM 
          0                 1           2             4    7     1      -0.2703863917E-01       4    7    1        -0.1414032620E+01      0.3505063223E+01
          0                 2           2             4   13     1      -0.1965796670E-01       4   13    1        -0.1157319852E+01      0.2074661023E+01
          0                 3           2             3   13     1      -0.2410773139E-02       3   13    1        -0.1438572083E+00      0.2247665964E+00
          0                 4           2             3   13     1       0.1638935512E-03       3   13    1         0.1001185827E-01      0.1818544887E-01
          0                 5           1             4    7     1      -0.4763770982E-04       4    7    1        -0.2630002738E-02      0.6462132826E-02

    ------------------------------------------------
       NWT REQUIRED            5 OUTER ITERATIONS 
       AND A TOTAL OF          9 INNER ITERATIONS.
    ------------------------------------------------

 NO OUTPUT CONTROL FOR STRESS PERIOD    8   TIME STEP    3
 
 SOLVING FOR HEAD 
                                                   Max.-Head-Change                         Max.-Flux-Residual
  Residual-Control   Outer-Iter.   Inner-Iter.     Column Row Layer    Maximum-Head-Change  Column Row Layer    Maximum-Flux-Residual          L2-NORM 
          0                 1           2             4    7     1      -0.2684816255E-01       4    7    1        -0.1404638617E+01      0.3467540223E+01
          0                 2           2             4   13     1      -0.1984409397E-01       4   13    1        -0.1166320128E+01      0.2055496828E+01
          0                 3           2             7   13     1      -0.2023785263E-02       7   13    1        -0.1129507115E+00      0.1869949741E+00
          0                 4           2             7   13     1       0.1377433297E-03       7   13    1         0.7896752602E-02      0.1535509590E-01
          0                 5           1             4    7     1      -0.4772510476E-04       4    7    1        -0.2633394759E-02      0.6457224198E-02

    ------------------------------------------------
       NWT REQUIRED            5 OUTER ITERATIONS 
       AND A TOTAL OF          9 INNER ITERATIONS.
    ------------------------------------------------

 NO OUTPUT CONTROL FOR STRESS PERIOD    8   TIME STEP    4
 
 SOLVING FOR HEAD 
                                                   Max.-Head-Change                         Max.-Flux-Residual
  Residual-Control   Outer-Iter.   Inner-Iter.     Column Row Layer    Maximum-Head-Change  Column Row Layer    Maximum-Flux-Residual          L2-NORM 
          0                 1           2             4    7     1      -0.2666866643E-01       4    7    1        -0.1395060019E+01      0.3433776925E+01
          0                 2           2             4   13     1      -0.1998244687E-01       4   13    1        -0.1174480345E+01      0.2067539788E+01
          0                 3           2             7   13     1      -0.2014338856E-02       7   13    1        -0.1124247556E+00      0.1872280265E+00
          0                 4           2             7   13     1       0.1371060273E-03       7   13    1         0.7860265056E-02      0.1537457328E-01
          0                 5           1             4    7     1      -0.4777692726E-04       4    7    1        -0.2636262004E-02      0.6463626880E-02

    ------------------------------------------------
       NWT REQUIRED            5 OUTER ITERATIONS 
       AND A TOTAL OF          9 INNER ITERATIONS.
    ------------------------------------------------

 OUTPUT CONTROL FOR STRESS PERIOD    8   TIME STEP    5
    PRINT BUDGET
    SAVE BUDGET
 UBDSV1 SAVING "         STORAGE" ON UNIT 102 AT TIME STEP  5, STRESS PERIOD   8
 UBDSV2 SAVING "   CONSTANT HEAD" ON UNIT 102 AT TIME STEP  5, STRESS PERIOD   8
 UBDSV1 SAVING "FLOW RIGHT FACE " ON UNIT 102 AT TIME STEP  5, STRESS PERIOD   8
 UBDSV1 SAVING "FLOW FRONT FACE " ON UNIT 102 AT TIME STEP  5, STRESS PERIOD   8

  HEAD DEP BOUNDS   PERIOD    8   STEP     5
 BOUNDARY      1   LAYER   1   ROW    13   COL     1   RATE   -0.292285    
 BOUNDARY      2   LAYER   1   ROW    14   COL     9   RATE    0.285763    



 STREAM LISTING     PERIOD      8   STEP        5

 LAYER ROW COL. STREAM  RCH.  FLOW INTO     FLOW TO   FLOW OUT OF   OVRLND.     DIRECT     STREAM       STREAM     STREAM     STREAM   STREAMBED  STREAMBED
                SEG.NO.  NO.  STRM. RCH.    AQUIFER    STRM. RCH.    RUNOFF     PRECIP       ET          HEAD       DEPTH      WIDTH   CONDCTNC.   GRADIENT

   1    1    1     1     1    5.6250E+01  3.5875E-01   5.5891E+01  0.000E+00  0.000E+00  0.000E+00  1.09453E+03  1.479E+00  1.780E+01  8.010E-02  1.493E+00
   1    2    2     1     2    5.5891E+01  5.5550E-01   5.5336E+01  0.000E+00  0.000E+00  0.000E+00  1.08953E+03  1.473E+00  1.774E+01  1.242E-01  1.491E+00
   1    3    3     1     3    5.5336E+01  4.7368E-01   5.4862E+01  0.000E+00  0.000E+00  0.000E+00  1.08389E+03  1.467E+00  1.767E+01  1.060E-01  1.489E+00
   1    3    4     1     4    5.4862E+01  4.3613E-01   5.4426E+01  0.000E+00  0.000E+00  0.000E+00  1.07887E+03  1.461E+00  1.762E+01  9.777E-02  1.487E+00
   1    4    5     2     1    5.2426E+01  3.8056E-01   5.2046E+01  0.000E+00  0.000E+00  0.000E+00  1.07381E+03  1.879E+00  1.200E+01  7.800E-02  1.626E+00
   1    5    6     2     2    5.2046E+01  2.9230E-01   5.1753E+01  0.000E+00  0.000E+00  0.000E+00  1.06838E+03  1.872E+00  1.200E+01  6.000E-02  1.624E+00
   1    6    6     2     3    5.1753E+01  2.9192E-01   5.1461E+01  0.000E+00  0.000E+00  0.000E+00  1.06366E+03  1.865E+00  1.200E+01  6.000E-02  1.622E+00
   1    7    6     2     4    5.1461E+01  2.9154E-01   5.1170E+01  0.000E+00  0.000E+00  0.000E+00  1.05893E+03  1.859E+00  1.200E+01  6.000E-02  1.620E+00
   1    8    6     2     5    5.1170E+01  2.9116E-01   5.0879E+01  0.000E+00  0.000E+00  0.000E+00  1.05421E+03  1.853E+00  1.200E+01  6.000E-02  1.618E+00
   1    3    5     3     1    2.0000E+00  2.8252E-01   1.7175E+00  0.000E+00  0.000E+00  0.000E+00  1.07555E+03  1.909E+00  9.636E+00  7.227E-02  1.955E+00
   1    3    6     3     2    1.7175E+00  2.4905E-01   1.4684E+00  0.000E+00  0.000E+00  0.000E+00  1.07264E+03  1.727E+00  8.909E+00  6.682E-02  1.864E+00
   1    3    7     3     3    1.4684E+00  1.9718E-01   1.2712E+00  0.000E+00  0.000E+00  0.000E+00  1.06987E+03  1.555E+00  8.218E+00  5.547E-02  1.777E+00
   1    4    8     3     4    1.2712E+00  2.2567E-01   1.0456E+00  0.000E+00  0.000E+00  0.000E+00  1.06682E+03  1.364E+00  7.455E+00  6.709E-02  1.682E+00
   1    5    8     3     5    1.0456E+00  1.5790E-01   8.8768E-01  0.000E+00  0.000E+00  0.000E+00  1.06362E+03  1.164E+00  6.655E+00  4.991E-02  1.582E+00
   1    6    8     3     6    8.8768E-01  5.5980E-02   8.3170E-01  0.000E+00  0.000E+00  0.000E+00  1.06158E+03  1.036E+00  6.145E+00  1.844E-02  1.518E+00
   1    5   10     4     1    1.0000E+01  9.0919E-02   9.9091E+00  0.000E+00  0.000E+00  0.000E+00  1.07836E+03  6.368E-01  1.000E+01  2.500E-02  1.212E+00
   1    5    9     4     2    9.9091E+00  1.8158E-01   9.7275E+00  0.000E+00  0.000E+00  0.000E+00  1.07154E+03  6.315E-01  1.000E+01  5.000E-02  1.211E+00
   1    6    8     4     3    9.7275E+00  1.2689E-01   9.6006E+00  0.000E+00  0.000E+00  0.000E+00  1.06381E+03  6.256E-01  1.000E+01  3.500E-02  1.209E+00
   1    6    8     5     1    1.0432E+01  2.2686E-01   1.0205E+01  0.000E+00  0.000E+00  0.000E+00  1.05868E+03  6.790E-01  1.542E+01  6.166E-02  1.226E+00
   1    7    7     5     2    1.0205E+01  2.7894E-01   9.9265E+00  0.000E+00  0.000E+00  0.000E+00  1.05417E+03  6.732E-01  1.519E+01  7.594E-02  1.224E+00
   1    8    7     5     3    9.9265E+00  1.9221E-01   9.7343E+00  0.000E+00  0.000E+00  0.000E+00  1.04992E+03  6.676E-01  1.497E+01  5.241E-02  1.223E+00
   1    8    6     5     4    9.7343E+00  1.3577E-01   9.5985E+00  0.000E+00  0.000E+00  0.000E+00  1.04691E+03  6.637E-01  1.482E+01  3.706E-02  1.221E+00
   1    9    6     6     1    9.5985E+00  2.2097E-01   9.3776E+00  0.000E+00  0.000E+00  0.000E+00  1.04341E+03  6.828E-01  1.200E+01  6.000E-02  1.228E+00
   1   10    7     6     2    9.3776E+00  2.2039E-01   9.1572E+00  0.000E+00  0.000E+00  0.000E+00  1.03885E+03  6.732E-01  1.200E+01  6.000E-02  1.224E+00
   1   11    7     6     3    9.1572E+00  2.1981E-01   8.9374E+00  0.000E+00  0.000E+00  0.000E+00  1.03430E+03  6.636E-01  1.200E+01  6.000E-02  1.221E+00
   1   12    7     6     4    8.9374E+00  2.1923E-01   8.7181E+00  0.000E+00  0.000E+00  0.000E+00  1.02974E+03  6.539E-01  1.200E+01  6.000E-02  1.218E+00
   1   13    7     6     5    8.7181E+00 -1.4215E-01   8.8603E+00  0.000E+00  0.000E+00  0.000E+00  1.02656E+03  6.521E-01  1.200E+01  2.400E-01 -1.974E-01
   1   14    9     7     1    1.5000E+02  1.3359E+00   1.4866E+02  0.000E+00  0.000E+00  0.000E+00  1.03987E+03  2.288E+00  5.529E+01  5.593E-01  7.962E-01
   1   13    8     7     2    1.4866E+02  1.8179E+00   1.4685E+02  0.000E+00  0.000E+00  0.000E+00  1.03478E+03  2.279E+00  5.526E+01  6.148E-01  9.857E-01
   1   13    7     7     3    1.4685E+02  1.4166E+00   1.4543E+02  0.000E+00  0.000E+00  0.000E+00  1.02969E+03  2.271E+00  5.522E+01  5.585E-01  8.455E-01
   1   13    6     8     1    1.5429E+02  7.7119E-01   1.5352E+02  0.000E+00  0.000E+00  0.000E+00  1.02472E+03  2.844E+00  4.124E+01  4.202E-01  6.117E-01
   1   13    5     8     2    1.5352E+02  4.8390E-02   1.5347E+02  0.000E+00  0.000E+00  0.000E+00  1.01847E+03  2.841E+00  4.120E+01  4.198E-01  3.842E-02
   1   13    4     8     3    1.5347E+02 -3.0909E+00   1.5656E+02  0.000E+00  0.000E+00  0.000E+00  1.01223E+03  2.852E+00  4.135E+01  4.214E+00 -2.445E-01
   1   13    3     8     4    1.5656E+02 -4.1300E+00   1.6069E+02  0.000E+00  0.000E+00  0.000E+00  1.00600E+03  2.877E+00  4.171E+01  4.250E+00 -3.239E-01
   1   13    2     8     5    1.6069E+02 -3.0894E+00   1.6378E+02  0.000E+00  0.000E+00  0.000E+00  9.99776E+02  2.901E+00  4.206E+01  4.286E+00 -2.403E-01
   1   13    1     8     6    1.6378E+02 -2.3233E+00   1.6610E+02  0.000E+00  0.000E+00  0.000E+00  9.94794E+02  2.919E+00  4.232E+01  2.588E+00 -2.993E-01
   1    8    6     9     1    5.0879E+01  0.0000E+00   5.0879E+01  0.000E+00  0.000E+00  0.000E+00  1.08476E+03  6.014E+00  4.000E+00  0.000E+00  3.005E+00
   1    8    5     9     2    5.0879E+01  0.0000E+00   5.0879E+01  0.000E+00  0.000E+00  0.000E+00  1.08426E+03  6.014E+00  4.000E+00  0.000E+00  3.005E+00



 UBDSV3 SAVING "           GW ET" ON UNIT  61 AT TIME STEP  5, STRESS PERIOD   8
 UBDSV3 SAVING "    UZF RECHARGE" ON UNIT  61 AT TIME STEP  5, STRESS PERIOD   8
 UBDSV3 SAVING " SURFACE LEAKAGE" ON UNIT  61 AT TIME STEP  5, STRESS PERIOD   8
 UBDSV3 SAVING "       HORT+DUNN" ON UNIT  61 AT TIME STEP  5, STRESS PERIOD   8
 UBDSV3 SAVING "  STORAGE CHANGE" ON UNIT  61 AT TIME STEP  5, STRESS PERIOD   8


UNSATURATED ZONE PACKAGE VOLUMETRIC BUDGET FOR  TIME STEP     5 STRESS PERIOD    8
  ------------------------------------------------------------------------------



     CUMULATIVE VOLUMES      L**3       RATES FOR THIS TIME STEP      L**3/T
     ------------------                 ------------------------

           IN:                                      IN:
           ---                                      ---
        INFILTRATION =   183583774.0730          INFILTRATION =          64.2155

          OUT:                                     OUT:
          ----                                     ----
              UZF ET =   164035958.2561                UZF ET =          64.0990
        UZF RECHARGE =       73224.0000          UZF RECHARGE =       0.0000E+00

            IN - OUT =    19474591.8169              IN - OUT =           0.1165

          STORAGE:                                 STORAGE:
          --------                                 --------
      STORAGE CHANGE =    19474590.5201        STORAGE CHANGE =           0.1165

 PERCENT DISCREPANCY IS DIFFERENCE BETWEEN IN-OUT MINUS CHANGE IN STORAGE
 DIVIDED BY THE AVERAGE OF IN AND OUT TIMES 100

 PERCENT DISCREPANCY =           0.00     PERCENT DISCREPANCY =           0.00






 

            AG WELLS      PERIOD    8   STEP   5
 AG WELL      1   LAYER   1   ROW     6   COL     4   RATE    -1.48805    
 AG WELL      2   LAYER   1   ROW     6   COL     5   RATE    -1.48805    
 AG WELL      3   LAYER   1   ROW     7   COL     4   RATE    -1.48805    
 AG WELL      4   LAYER   1   ROW     7   COL     5   RATE    -1.48805    
 AG WELL      5   LAYER   1   ROW     8   COL     4   RATE    -1.48805    
 AG WELL      6   LAYER   1   ROW     8   COL     5   RATE    -1.48805    
 
 

   DIVERSION SEGMENTS     PERIOD    8   STEP   5
 SEGMENT      9   RATE     50.8787    
 
 

        SW IRRIGATION     PERIOD    8   STEP   5
 SEGMENT      9   ROW     6   COL     4   RATE     8.47995    
 SEGMENT      9   ROW     6   COL     5   RATE     8.47995    
 SEGMENT      9   ROW     7   COL     4   RATE     8.47995    
 SEGMENT      9   ROW     7   COL     5   RATE     8.47995    
 SEGMENT      9   ROW     8   COL     4   RATE     8.47995    
 SEGMENT      9   ROW     8   COL     5   RATE     8.47995    
 
 

        GW IRRIGATION     PERIOD    8   STEP   5
 AG WELL      1   ROW     6   COL     4   RATE     1.48805    
 AG WELL      2   ROW     6   COL     5   RATE     1.48805    
 AG WELL      3   ROW     7   COL     4   RATE     1.48805    
 AG WELL      4   ROW     7   COL     5   RATE     1.48805    
 AG WELL      5   ROW     8   COL     4   RATE     1.48805    
 AG WELL      6   ROW     8   COL     5   RATE     1.48805    
 
1
  VOLUMETRIC BUDGET FOR AGRICULTURAL FIELDS AT TIME STEP    5, STRESS PERIOD   8
  ------------------------------------------------------------------------------

     CUMULATIVE VOLUMES      L**3       RATES FOR THIS TIME STEP      L**3/T
     ------------------                 ------------------------

           IN:                                      IN:
           ---                                      ---
               AG WELLS  =     3913593.5000                 AG WELLS  =           8.9283
      DIVERSION SEGMENTS =   108112480.0000        DIVERSION SEGMENTS =          50.8787
           GW IRRIGATION =           0.0000             GW IRRIGATION =           0.0000
           SW IRRIGATION =           0.0000             SW IRRIGATION =           0.0000
        SYSTEM LOSSES GW =           0.0000          SYSTEM LOSSES GW =           0.0000
        SYSTEM LOSSES SW =           0.0000          SYSTEM LOSSES SW =           0.0000

                TOTAL IN =   112026072.0000                  TOTAL IN =          59.8070

          OUT:                                     OUT:
          ----                                     ----
               AG WELLS  =           0.0000                 AG WELLS  =           0.0000
      DIVERSION SEGMENTS =           0.0000        DIVERSION SEGMENTS =           0.0000
           GW IRRIGATION =     3913593.5000             GW IRRIGATION =           8.9283
           SW IRRIGATION =   108114632.0000             SW IRRIGATION =          50.8797
        SYSTEM LOSSES GW =           0.0000          SYSTEM LOSSES GW =           0.0000
        SYSTEM LOSSES SW =           0.0000          SYSTEM LOSSES SW =           0.0000

               TOTAL OUT =   112028224.0000                 TOTAL OUT =          59.8080

                IN - OUT =       -2152.0000                  IN - OUT =      -1.0147E-03

     PERCENT DISCREPANCY =          -0.00         PERCENT DISCREPANCY =          -0.00



1
  VOLUMETRIC BUDGET FOR ENTIRE MODEL AT END OF TIME STEP    5, STRESS PERIOD   8
  ------------------------------------------------------------------------------

     CUMULATIVE VOLUMES      L**3       RATES FOR THIS TIME STEP      L**3/T
     ------------------                 ------------------------

           IN:                                      IN:
           ---                                      ---
             STORAGE     =    16866210.0000               STORAGE     =          11.2009
       CONSTANT HEAD     =           0.0000         CONSTANT HEAD     =           0.0000
     HEAD DEP BOUNDS     =     4658609.0000       HEAD DEP BOUNDS     =           0.2858
      STREAM LEAKAGE     =   199731088.0000        STREAM LEAKAGE     =          12.0433
        UZF RECHARGE     =       73223.9531          UZF RECHARGE     =           0.0000
               GW ET     =           0.0000                 GW ET     =           0.0000
     SURFACE LEAKAGE     =           0.0000       SURFACE LEAKAGE     =           0.0000
           AG WELLS      =           0.0000             AG WELLS      =           0.0000

                TOTAL IN =   221329120.0000                  TOTAL IN =          23.5300

          OUT:                                     OUT:
          ----                                     ----
             STORAGE     =    38247988.0000               STORAGE     =           1.5330
       CONSTANT HEAD     =           0.0000         CONSTANT HEAD     =           0.0000
     HEAD DEP BOUNDS     =     4761514.5000       HEAD DEP BOUNDS     =           0.2923
      STREAM LEAKAGE     =   172867584.0000        STREAM LEAKAGE     =          12.7758
        UZF RECHARGE     =           0.0000          UZF RECHARGE     =           0.0000
               GW ET     =     1532013.0000                 GW ET     =           0.0000
     SURFACE LEAKAGE     =           0.0000       SURFACE LEAKAGE     =           0.0000
           AG WELLS      =     3913593.5000             AG WELLS      =           8.9283

               TOTAL OUT =   221322704.0000                 TOTAL OUT =          23.5294

                IN - OUT =        6416.0000                  IN - OUT =       6.5613E-04

     PERCENT DISCREPANCY =           0.00         PERCENT DISCREPANCY =           0.00






         TIME SUMMARY AT END OF TIME STEP    5 IN STRESS PERIOD    8
                    SECONDS     MINUTES      HOURS       DAYS        YEARS
                    -----------------------------------------------------------
   TIME STEP LENGTH  87667.      1461.1      24.352      1.0147     2.77799E-03
 STRESS PERIOD TIME 4.38333E+05  7305.6      121.76      5.0733     1.38899E-02
         TOTAL TIME 1.63048E+07 2.71746E+05  4529.1      188.71     0.51667    
1
 
 SOLVING FOR HEAD 
                                                   Max.-Head-Change                         Max.-Flux-Residual
  Residual-Control   Outer-Iter.   Inner-Iter.     Column Row Layer    Maximum-Head-Change  Column Row Layer    Maximum-Flux-Residual          L2-NORM 
          0                 1           2             4    7     1      -0.2647424567E-01       4    7    1        -0.1385418227E+01      0.3403264020E+01
          0                 2           2             4   13     1      -0.2010804473E-01       4   13    1        -0.1181885941E+01      0.2078653760E+01
          0                 3           2             7   13     1      -0.2005158989E-02       7   13    1        -0.1119136422E+00      0.1874305586E+00
          0                 4           2             7   13     1       0.1364819155E-03       7   13    1         0.7824531555E-02      0.1539242829E-01
          0                 5           1             4    7     1      -0.4784991018E-04       4    7    1        -0.2640294097E-02      0.6472995979E-02

    ------------------------------------------------
       NWT REQUIRED            5 OUTER ITERATIONS 
       AND A TOTAL OF          9 INNER ITERATIONS.
    ------------------------------------------------

 NO OUTPUT CONTROL FOR STRESS PERIOD    8   TIME STEP    6
 
 SOLVING FOR HEAD 
                                                   Max.-Head-Change                         Max.-Flux-Residual
  Residual-Control   Outer-Iter.   Inner-Iter.     Column Row Layer    Maximum-Head-Change  Column Row Layer    Maximum-Flux-Residual          L2-NORM 
          0                 1           2             4    7     1      -0.2627223600E-01       4    7    1        -0.1375336399E+01      0.3375362370E+01
          0                 2           2             4   13     1      -0.2022205616E-01       4   13    1        -0.1188606243E+01      0.2088917572E+01
          0                 3           2             7   13     1      -0.1996240454E-02       7   13    1        -0.1114170810E+00      0.1876011303E+00
          0                 4           2             7   13     1       0.1358741615E-03       7   13    1         0.7789738642E-02      0.1541251438E-01
          0                 5           1             4    7     1      -0.4789807365E-04       4    7    1        -0.2642956108E-02      0.6479052010E-02

    ------------------------------------------------
       NWT REQUIRED            5 OUTER ITERATIONS 
       AND A TOTAL OF          9 INNER ITERATIONS.
    ------------------------------------------------

 NO OUTPUT CONTROL FOR STRESS PERIOD    8   TIME STEP    7
 
 SOLVING FOR HEAD 
                                                   Max.-Head-Change                         Max.-Flux-Residual
  Residual-Control   Outer-Iter.   Inner-Iter.     Column Row Layer    Maximum-Head-Change  Column Row Layer    Maximum-Flux-Residual          L2-NORM 
          0                 1           2             4    7     1      -0.2606268225E-01       4    7    1        -0.1364817338E+01      0.3349665424E+01
          0                 2           2             4   13     1      -0.2032564317E-01       4   13    1        -0.1194710151E+01      0.2098404743E+01
          0                 3           2             7   13     1      -0.1987575340E-02       7   13    1        -0.1109346259E+00      0.1877454387E+00
          0                 4           2             7   13     1       0.1352834905E-03       7   13    1         0.7755919986E-02      0.1543080753E-01
          0                 5           1             4    7     1      -0.4796233735E-04       4    7    1        -0.2646505979E-02      0.6487371318E-02

    ------------------------------------------------
       NWT REQUIRED            5 OUTER ITERATIONS 
       AND A TOTAL OF          9 INNER ITERATIONS.
    ------------------------------------------------

 NO OUTPUT CONTROL FOR STRESS PERIOD    8   TIME STEP    8
 
 SOLVING FOR HEAD 
                                                   Max.-Head-Change                         Max.-Flux-Residual
  Residual-Control   Outer-Iter.   Inner-Iter.     Column Row Layer    Maximum-Head-Change  Column Row Layer    Maximum-Flux-Residual          L2-NORM 
          0                 1           2             4    7     1      -0.2584721989E-01       4    7    1        -0.1353950998E+01      0.3325854423E+01
          0                 2           2             4   13     1      -0.2041980519E-01       4   13    1        -0.1200256875E+01      0.2107175028E+01
          0                 3           2             7   13     1      -0.1979156377E-02       7   13    1        -0.1104658791E+00      0.1878642567E+00
          0                 4           2             7   13     1       0.1347107269E-03       7   13    1         0.7723128097E-02      0.1544817794E-01
          0                 5           1             4    7     1      -0.4802113452E-04       4    7    1        -0.2649753692E-02      0.6494895116E-02

    ------------------------------------------------
       NWT REQUIRED            5 OUTER ITERATIONS 
       AND A TOTAL OF          9 INNER ITERATIONS.
    ------------------------------------------------

 NO OUTPUT CONTROL FOR STRESS PERIOD    8   TIME STEP    9
 
 SOLVING FOR HEAD 
                                                   Max.-Head-Change                         Max.-Flux-Residual
  Residual-Control   Outer-Iter.   Inner-Iter.     Column Row Layer    Maximum-Head-Change  Column Row Layer    Maximum-Flux-Residual          L2-NORM 
          0                 1           2             4    7     1      -0.2562578413E-01       4    7    1        -0.1342734422E+01      0.3303645174E+01
          0                 2           2             4   13     1      -0.2050546111E-01       4   13    1        -0.1205300918E+01      0.2115265904E+01
          0                 3           2             7   13     1      -0.1970972143E-02       7   13    1        -0.1100102050E+00      0.1879584584E+00
          0                 4           2             7   13     1       0.1341523803E-03       7   13    1         0.7691162350E-02      0.1546592702E-01
          0                 5           1             4    7     1      -0.4808295026E-04       4    7    1        -0.2653147927E-02      0.6502832109E-02

    ------------------------------------------------
       NWT REQUIRED            5 OUTER ITERATIONS 
       AND A TOTAL OF          9 INNER ITERATIONS.
    ------------------------------------------------

 OUTPUT CONTROL FOR STRESS PERIOD    8   TIME STEP   10
    PRINT BUDGET
    SAVE BUDGET
 UBDSV1 SAVING "         STORAGE" ON UNIT 102 AT TIME STEP 10, STRESS PERIOD   8
 UBDSV2 SAVING "   CONSTANT HEAD" ON UNIT 102 AT TIME STEP 10, STRESS PERIOD   8
 UBDSV1 SAVING "FLOW RIGHT FACE " ON UNIT 102 AT TIME STEP 10, STRESS PERIOD   8
 UBDSV1 SAVING "FLOW FRONT FACE " ON UNIT 102 AT TIME STEP 10, STRESS PERIOD   8

  HEAD DEP BOUNDS   PERIOD    8   STEP    10
 BOUNDARY      1   LAYER   1   ROW    13   COL     1   RATE   -0.291226    
 BOUNDARY      2   LAYER   1   ROW    14   COL     9   RATE    0.285763    



 STREAM LISTING     PERIOD      8   STEP       10

 LAYER ROW COL. STREAM  RCH.  FLOW INTO     FLOW TO   FLOW OUT OF   OVRLND.     DIRECT     STREAM       STREAM     STREAM     STREAM   STREAMBED  STREAMBED
                SEG.NO.  NO.  STRM. RCH.    AQUIFER    STRM. RCH.    RUNOFF     PRECIP       ET          HEAD       DEPTH      WIDTH   CONDCTNC.   GRADIENT

   1    1    1     1     1    5.6250E+01  3.5875E-01   5.5891E+01  0.000E+00  0.000E+00  0.000E+00  1.09453E+03  1.479E+00  1.780E+01  8.010E-02  1.493E+00
   1    2    2     1     2    5.5891E+01  5.5550E-01   5.5336E+01  0.000E+00  0.000E+00  0.000E+00  1.08953E+03  1.473E+00  1.774E+01  1.242E-01  1.491E+00
   1    3    3     1     3    5.5336E+01  4.7368E-01   5.4862E+01  0.000E+00  0.000E+00  0.000E+00  1.08389E+03  1.467E+00  1.767E+01  1.060E-01  1.489E+00
   1    3    4     1     4    5.4862E+01  4.3613E-01   5.4426E+01  0.000E+00  0.000E+00  0.000E+00  1.07887E+03  1.461E+00  1.762E+01  9.777E-02  1.487E+00
   1    4    5     2     1    5.2426E+01  3.8056E-01   5.2046E+01  0.000E+00  0.000E+00  0.000E+00  1.07381E+03  1.879E+00  1.200E+01  7.800E-02  1.626E+00
   1    5    6     2     2    5.2046E+01  2.9230E-01   5.1753E+01  0.000E+00  0.000E+00  0.000E+00  1.06838E+03  1.872E+00  1.200E+01  6.000E-02  1.624E+00
   1    6    6     2     3    5.1753E+01  2.9192E-01   5.1461E+01  0.000E+00  0.000E+00  0.000E+00  1.06366E+03  1.865E+00  1.200E+01  6.000E-02  1.622E+00
   1    7    6     2     4    5.1461E+01  2.9154E-01   5.1170E+01  0.000E+00  0.000E+00  0.000E+00  1.05893E+03  1.859E+00  1.200E+01  6.000E-02  1.620E+00
   1    8    6     2     5    5.1170E+01  2.9116E-01   5.0879E+01  0.000E+00  0.000E+00  0.000E+00  1.05421E+03  1.853E+00  1.200E+01  6.000E-02  1.618E+00
   1    3    5     3     1    2.0000E+00  2.8252E-01   1.7175E+00  0.000E+00  0.000E+00  0.000E+00  1.07555E+03  1.909E+00  9.636E+00  7.227E-02  1.955E+00
   1    3    6     3     2    1.7175E+00  2.4905E-01   1.4684E+00  0.000E+00  0.000E+00  0.000E+00  1.07264E+03  1.727E+00  8.909E+00  6.682E-02  1.864E+00
   1    3    7     3     3    1.4684E+00  1.9718E-01   1.2712E+00  0.000E+00  0.000E+00  0.000E+00  1.06987E+03  1.555E+00  8.218E+00  5.547E-02  1.777E+00
   1    4    8     3     4    1.2712E+00  2.2567E-01   1.0456E+00  0.000E+00  0.000E+00  0.000E+00  1.06682E+03  1.364E+00  7.455E+00  6.709E-02  1.682E+00
   1    5    8     3     5    1.0456E+00  1.5790E-01   8.8768E-01  0.000E+00  0.000E+00  0.000E+00  1.06362E+03  1.164E+00  6.655E+00  4.991E-02  1.582E+00
   1    6    8     3     6    8.8768E-01  5.5980E-02   8.3170E-01  0.000E+00  0.000E+00  0.000E+00  1.06158E+03  1.036E+00  6.145E+00  1.844E-02  1.518E+00
   1    5   10     4     1    1.0000E+01  9.0919E-02   9.9091E+00  0.000E+00  0.000E+00  0.000E+00  1.07836E+03  6.368E-01  1.000E+01  2.500E-02  1.212E+00
   1    5    9     4     2    9.9091E+00  1.8158E-01   9.7275E+00  0.000E+00  0.000E+00  0.000E+00  1.07154E+03  6.315E-01  1.000E+01  5.000E-02  1.211E+00
   1    6    8     4     3    9.7275E+00  1.2689E-01   9.6006E+00  0.000E+00  0.000E+00  0.000E+00  1.06381E+03  6.256E-01  1.000E+01  3.500E-02  1.209E+00
   1    6    8     5     1    1.0432E+01  2.2686E-01   1.0205E+01  0.000E+00  0.000E+00  0.000E+00  1.05868E+03  6.790E-01  1.542E+01  6.166E-02  1.226E+00
   1    7    7     5     2    1.0205E+01  2.7894E-01   9.9265E+00  0.000E+00  0.000E+00  0.000E+00  1.05417E+03  6.732E-01  1.519E+01  7.594E-02  1.224E+00
   1    8    7     5     3    9.9265E+00  1.9221E-01   9.7343E+00  0.000E+00  0.000E+00  0.000E+00  1.04992E+03  6.676E-01  1.497E+01  5.241E-02  1.223E+00
   1    8    6     5     4    9.7343E+00  1.3577E-01   9.5985E+00  0.000E+00  0.000E+00  0.000E+00  1.04691E+03  6.637E-01  1.482E+01  3.706E-02  1.221E+00
   1    9    6     6     1    9.5985E+00  2.2097E-01   9.3776E+00  0.000E+00  0.000E+00  0.000E+00  1.04341E+03  6.828E-01  1.200E+01  6.000E-02  1.228E+00
   1   10    7     6     2    9.3776E+00  2.2039E-01   9.1572E+00  0.000E+00  0.000E+00  0.000E+00  1.03885E+03  6.732E-01  1.200E+01  6.000E-02  1.224E+00
   1   11    7     6     3    9.1572E+00  2.1981E-01   8.9374E+00  0.000E+00  0.000E+00  0.000E+00  1.03430E+03  6.636E-01  1.200E+01  6.000E-02  1.221E+00
   1   12    7     6     4    8.9374E+00  2.1923E-01   8.7181E+00  0.000E+00  0.000E+00  0.000E+00  1.02974E+03  6.539E-01  1.200E+01  6.000E-02  1.218E+00
   1   13    7     6     5    8.7181E+00 -1.3978E-01   8.8579E+00  0.000E+00  0.000E+00  0.000E+00  1.02656E+03  6.521E-01  1.200E+01  2.400E-01 -1.941E-01
   1   14    9     7     1    1.5000E+02  1.3359E+00   1.4866E+02  0.000E+00  0.000E+00  0.000E+00  1.03987E+03  2.288E+00  5.529E+01  5.593E-01  7.962E-01
   1   13    8     7     2    1.4866E+02  1.8179E+00   1.4685E+02  0.000E+00  0.000E+00  0.000E+00  1.03478E+03  2.279E+00  5.526E+01  6.148E-01  9.857E-01
   1   13    7     7     3    1.4685E+02  1.4221E+00   1.4542E+02  0.000E+00  0.000E+00  0.000E+00  1.02969E+03  2.271E+00  5.522E+01  5.585E-01  8.488E-01
   1   13    6     8     1    1.5428E+02  7.7603E-01   1.5351E+02  0.000E+00  0.000E+00  0.000E+00  1.02472E+03  2.844E+00  4.124E+01  4.202E-01  6.156E-01
   1   13    5     8     2    1.5351E+02  5.2884E-02   1.5345E+02  0.000E+00  0.000E+00  0.000E+00  1.01847E+03  2.841E+00  4.120E+01  4.198E-01  4.199E-02
   1   13    4     8     3    1.5345E+02 -2.9729E+00   1.5643E+02  0.000E+00  0.000E+00  0.000E+00  1.01223E+03  2.851E+00  4.134E+01  4.213E+00 -2.352E-01
   1   13    3     8     4    1.5643E+02 -4.0233E+00   1.6045E+02  0.000E+00  0.000E+00  0.000E+00  1.00600E+03  2.875E+00  4.169E+01  4.248E+00 -3.157E-01
   1   13    2     8     5    1.6045E+02 -2.9449E+00   1.6339E+02  0.000E+00  0.000E+00  0.000E+00  9.99774E+02  2.899E+00  4.203E+01  4.283E+00 -2.292E-01
   1   13    1     8     6    1.6339E+02 -2.2561E+00   1.6565E+02  0.000E+00  0.000E+00  0.000E+00  9.94791E+02  2.916E+00  4.228E+01  2.585E+00 -2.909E-01
   1    8    6     9     1    5.0879E+01  0.0000E+00   5.0879E+01  0.000E+00  0.000E+00  0.000E+00  1.08476E+03  6.014E+00  4.000E+00  0.000E+00  3.005E+00
   1    8    5     9     2    5.0879E+01  0.0000E+00   5.0879E+01  0.000E+00  0.000E+00  0.000E+00  1.08426E+03  6.014E+00  4.000E+00  0.000E+00  3.005E+00



 UBDSV3 SAVING "           GW ET" ON UNIT  61 AT TIME STEP 10, STRESS PERIOD   8
 UBDSV3 SAVING "    UZF RECHARGE" ON UNIT  61 AT TIME STEP 10, STRESS PERIOD   8
 UBDSV3 SAVING " SURFACE LEAKAGE" ON UNIT  61 AT TIME STEP 10, STRESS PERIOD   8
 UBDSV3 SAVING "       HORT+DUNN" ON UNIT  61 AT TIME STEP 10, STRESS PERIOD   8
 UBDSV3 SAVING "  STORAGE CHANGE" ON UNIT  61 AT TIME STEP 10, STRESS PERIOD   8


UNSATURATED ZONE PACKAGE VOLUMETRIC BUDGET FOR  TIME STEP    10 STRESS PERIOD    8
  ------------------------------------------------------------------------------



     CUMULATIVE VOLUMES      L**3       RATES FOR THIS TIME STEP      L**3/T
     ------------------                 ------------------------

           IN:                                      IN:
           ---                                      ---
        INFILTRATION =   211731532.9197          INFILTRATION =          64.2154

          OUT:                                     OUT:
          ----                                     ----
              UZF ET =   192132667.9778                UZF ET =          64.0989
        UZF RECHARGE =       73224.0000          UZF RECHARGE =       0.0000E+00

            IN - OUT =    19525640.9419              IN - OUT =           0.1164

          STORAGE:                                 STORAGE:
          --------                                 --------
      STORAGE CHANGE =    19525638.9183        STORAGE CHANGE =           0.1164

 PERCENT DISCREPANCY IS DIFFERENCE BETWEEN IN-OUT MINUS CHANGE IN STORAGE
 DIVIDED BY THE AVERAGE OF IN AND OUT TIMES 100

 PERCENT DISCREPANCY =           0.00     PERCENT DISCREPANCY =           0.00






 

            AG WELLS      PERIOD    8   STEP  10
 AG WELL      1   LAYER   1   ROW     6   COL     4   RATE    -1.48803    
 AG WELL      2   LAYER   1   ROW     6   COL     5   RATE    -1.48803    
 AG WELL      3   LAYER   1   ROW     7   COL     4   RATE    -1.48803    
 AG WELL      4   LAYER   1   ROW     7   COL     5   RATE    -1.48803    
 AG WELL      5   LAYER   1   ROW     8   COL     4   RATE    -1.48803    
 AG WELL      6   LAYER   1   ROW     8   COL     5   RATE    -1.48803    
 
 

   DIVERSION SEGMENTS     PERIOD    8   STEP  10
 SEGMENT      9   RATE     50.8787    
 
 

        SW IRRIGATION     PERIOD    8   STEP  10
 SEGMENT      9   ROW     6   COL     4   RATE     8.47995    
 SEGMENT      9   ROW     6   COL     5   RATE     8.47995    
 SEGMENT      9   ROW     7   COL     4   RATE     8.47995    
 SEGMENT      9   ROW     7   COL     5   RATE     8.47995    
 SEGMENT      9   ROW     8   COL     4   RATE     8.47995    
 SEGMENT      9   ROW     8   COL     5   RATE     8.47995    
 
 

        GW IRRIGATION     PERIOD    8   STEP  10
 AG WELL      1   ROW     6   COL     4   RATE     1.48803    
 AG WELL      2   ROW     6   COL     5   RATE     1.48803    
 AG WELL      3   ROW     7   COL     4   RATE     1.48803    
 AG WELL      4   ROW     7   COL     5   RATE     1.48803    
 AG WELL      5   ROW     8   COL     4   RATE     1.48803    
 AG WELL      6   ROW     8   COL     5   RATE     1.48803    
 
1
  VOLUMETRIC BUDGET FOR AGRICULTURAL FIELDS AT TIME STEP   10, STRESS PERIOD   8
  ------------------------------------------------------------------------------

     CUMULATIVE VOLUMES      L**3       RATES FOR THIS TIME STEP      L**3/T
     ------------------                 ------------------------

           IN:                                      IN:
           ---                                      ---
               AG WELLS  =     7827143.0000                 AG WELLS  =           8.9282
      DIVERSION SEGMENTS =   130414280.0000        DIVERSION SEGMENTS =          50.8787
           GW IRRIGATION =           0.0000             GW IRRIGATION =           0.0000
           SW IRRIGATION =           0.0000             SW IRRIGATION =           0.0000
        SYSTEM LOSSES GW =           0.0000          SYSTEM LOSSES GW =           0.0000
        SYSTEM LOSSES SW =           0.0000          SYSTEM LOSSES SW =           0.0000

                TOTAL IN =   138241424.0000                  TOTAL IN =          59.8069

          OUT:                                     OUT:
          ----                                     ----
               AG WELLS  =           0.0000                 AG WELLS  =           0.0000
      DIVERSION SEGMENTS =           0.0000        DIVERSION SEGMENTS =           0.0000
           GW IRRIGATION =     7827143.0000             GW IRRIGATION =           8.9282
           SW IRRIGATION =   130416872.0000             SW IRRIGATION =          50.8797
        SYSTEM LOSSES GW =           0.0000          SYSTEM LOSSES GW =           0.0000
        SYSTEM LOSSES SW =           0.0000          SYSTEM LOSSES SW =           0.0000

               TOTAL OUT =   138244016.0000                 TOTAL OUT =          59.8079

                IN - OUT =       -2592.0000                  IN - OUT =      -1.0147E-03

     PERCENT DISCREPANCY =          -0.00         PERCENT DISCREPANCY =          -0.00



1
  VOLUMETRIC BUDGET FOR ENTIRE MODEL AT END OF TIME STEP   10, STRESS PERIOD   8
  ------------------------------------------------------------------------------

     CUMULATIVE VOLUMES      L**3       RATES FOR THIS TIME STEP      L**3/T
     ------------------                 ------------------------

           IN:                                      IN:
           ---                                      ---
             STORAGE     =    21614658.0000               STORAGE     =          10.6081
       CONSTANT HEAD     =           0.0000         CONSTANT HEAD     =           0.0000
     HEAD DEP BOUNDS     =     4783869.0000       HEAD DEP BOUNDS     =           0.2858
      STREAM LEAKAGE     =   205014032.0000        STREAM LEAKAGE     =          12.0582
        UZF RECHARGE     =       73223.9531          UZF RECHARGE     =           0.0000
               GW ET     =           0.0000                 GW ET     =           0.0000
     SURFACE LEAKAGE     =           0.0000       SURFACE LEAKAGE     =           0.0000
           AG WELLS      =           0.0000             AG WELLS      =           0.0000

                TOTAL IN =   231485776.0000                  TOTAL IN =          22.9521

          OUT:                                     OUT:
          ----                                     ----
             STORAGE     =    38883976.0000               STORAGE     =           1.3949
       CONSTANT HEAD     =           0.0000         CONSTANT HEAD     =           0.0000
     HEAD DEP BOUNDS     =     4889346.5000       HEAD DEP BOUNDS     =           0.2912
      STREAM LEAKAGE     =   178346608.0000        STREAM LEAKAGE     =          12.3371
        UZF RECHARGE     =           0.0000          UZF RECHARGE     =           0.0000
               GW ET     =     1532013.0000                 GW ET     =           0.0000
     SURFACE LEAKAGE     =           0.0000       SURFACE LEAKAGE     =           0.0000
           AG WELLS      =     7827143.0000             AG WELLS      =           8.9282

               TOTAL OUT =   231479088.0000                 TOTAL OUT =          22.9514

                IN - OUT =        6688.0000                  IN - OUT =       6.6185E-04

     PERCENT DISCREPANCY =           0.00         PERCENT DISCREPANCY =           0.00






         TIME SUMMARY AT END OF TIME STEP   10 IN STRESS PERIOD    8
                    SECONDS     MINUTES      HOURS       DAYS        YEARS
                    -----------------------------------------------------------
   TIME STEP LENGTH  87667.      1461.1      24.352      1.0147     2.77799E-03
 STRESS PERIOD TIME 8.76667E+05  14611.      243.52      10.147     2.77799E-02
         TOTAL TIME 1.67431E+07 2.79052E+05  4650.9      193.79     0.53056    
1
 
 SOLVING FOR HEAD 
                                                   Max.-Head-Change                         Max.-Flux-Residual
  Residual-Control   Outer-Iter.   Inner-Iter.     Column Row Layer    Maximum-Head-Change  Column Row Layer    Maximum-Flux-Residual          L2-NORM 
          0                 1           2             4    7     1      -0.2540000100E-01       4    7    1        -0.1331243273E+01      0.3282930127E+01
          0                 2           2             4   13     1      -0.2058341169E-01       4   13    1        -0.1209889687E+01      0.2122788680E+01
          0                 3           2             7   13     1      -0.1963017464E-02       7   13    1        -0.1095673116E+00      0.1880391407E+00
          0                 4           2             7   13     1       0.1336119325E-03       7   13    1         0.7660212921E-02      0.1548064591E-01
          0                 5           1             4    7     1      -0.4815784885E-04       4    7    1        -0.2657282372E-02      0.6512630703E-02

    ------------------------------------------------
       NWT REQUIRED            5 OUTER ITERATIONS 
       AND A TOTAL OF          9 INNER ITERATIONS.
    ------------------------------------------------

 NO OUTPUT CONTROL FOR STRESS PERIOD    8   TIME STEP   11
 
 SOLVING FOR HEAD 
                                                   Max.-Head-Change                         Max.-Flux-Residual
  Residual-Control   Outer-Iter.   Inner-Iter.     Column Row Layer    Maximum-Head-Change  Column Row Layer    Maximum-Flux-Residual          L2-NORM 
          0                 1           2             4    7     1      -0.2517192397E-01       4    7    1        -0.1319605540E+01      0.3263668383E+01
          0                 2           2             4   13     1      -0.2065413857E-01       4   13    1        -0.1214051872E+01      0.2129707018E+01
          0                 3           2             7   13     1      -0.1955285791E-02       7   13    1        -0.1091372179E+00      0.1880955861E+00
          0                 4           2             7   13     1       0.1330858307E-03       7   13    1         0.7629929671E-02      0.1549795857E-01
          0                 5           1             4    7     1      -0.4820572428E-04       4    7    1        -0.2659926013E-02      0.6518828792E-02

    ------------------------------------------------
       NWT REQUIRED            5 OUTER ITERATIONS 
       AND A TOTAL OF          9 INNER ITERATIONS.
    ------------------------------------------------

 NO OUTPUT CONTROL FOR STRESS PERIOD    8   TIME STEP   12
 
 SOLVING FOR HEAD 
                                                   Max.-Head-Change                         Max.-Flux-Residual
  Residual-Control   Outer-Iter.   Inner-Iter.     Column Row Layer    Maximum-Head-Change  Column Row Layer    Maximum-Flux-Residual          L2-NORM 
          0                 1           2             4    7     1      -0.2493850893E-01       4    7    1        -0.1307659646E+01      0.3245187326E+01
          0                 2           2             4   13     1      -0.2071889416E-01       4   13    1        -0.1217861325E+01      0.2136136334E+01
          0                 3           2             7   13     1      -0.1947773303E-02       7   13    1        -0.1087189285E+00      0.1881412854E+00
          0                 4           2             7   13     1       0.1325747508E-03       7   13    1         0.7600662759E-02      0.1551338396E-01
          0                 5           1             4    7     1      -0.4828045696E-04       4    7    1        -0.2664051202E-02      0.6528642967E-02

    ------------------------------------------------
       NWT REQUIRED            5 OUTER ITERATIONS 
       AND A TOTAL OF          9 INNER ITERATIONS.
    ------------------------------------------------

 NO OUTPUT CONTROL FOR STRESS PERIOD    8   TIME STEP   13
 
 SOLVING FOR HEAD 
                                                   Max.-Head-Change                         Max.-Flux-Residual
  Residual-Control   Outer-Iter.   Inner-Iter.     Column Row Layer    Maximum-Head-Change  Column Row Layer    Maximum-Flux-Residual          L2-NORM 
          0                 1           2             4    7     1      -0.2470205092E-01       4    7    1        -0.1295526945E+01      0.3227556351E+01
          0                 2           2             4   13     1      -0.2077789024E-01       4   13    1        -0.1221330792E+01      0.2142086272E+01
          0                 3           2             7   13     1      -0.1940444942E-02       7   13    1        -0.1083108906E+00      0.1881671974E+00
          0                 4           2             7   13     1       0.1320759139E-03       7   13    1         0.7572099647E-02      0.1553034916E-01
          0                 5           1             4    7     1      -0.4833056047E-04       4    7    1        -0.2666817112E-02      0.6535174511E-02

    ------------------------------------------------
       NWT REQUIRED            5 OUTER ITERATIONS 
       AND A TOTAL OF          9 INNER ITERATIONS.
    ------------------------------------------------

 NO OUTPUT CONTROL FOR STRESS PERIOD    8   TIME STEP   14
 
 SOLVING FOR HEAD 
                                                   Max.-Head-Change                         Max.-Flux-Residual
  Residual-Control   Outer-Iter.   Inner-Iter.     Column Row Layer    Maximum-Head-Change  Column Row Layer    Maximum-Flux-Residual          L2-NORM 
          0                 1           2             4    7     1      -0.2446306285E-01       4    7    1        -0.1283236120E+01      0.3210652485E+01
          0                 2           2             4   13     1      -0.2083169247E-01       4   13    1        -0.1224493744E+01      0.2147595413E+01
          0                 3           2             7   13     1      -0.1933322433E-02       7   13    1        -0.1079143290E+00      0.1881783160E+00
          0                 4           2             7   13     1       0.1315911897E-03       7   13    1         0.7544353135E-02      0.1554552687E-01
          0                 5           1             4    7     1      -0.4840263407E-04       4    7    1        -0.2670795191E-02      0.6544693697E-02

    ------------------------------------------------
       NWT REQUIRED            5 OUTER ITERATIONS 
       AND A TOTAL OF          9 INNER ITERATIONS.
    ------------------------------------------------

 OUTPUT CONTROL FOR STRESS PERIOD    8   TIME STEP   15
    PRINT BUDGET
    SAVE BUDGET
 UBDSV1 SAVING "         STORAGE" ON UNIT 102 AT TIME STEP 15, STRESS PERIOD   8
 UBDSV2 SAVING "   CONSTANT HEAD" ON UNIT 102 AT TIME STEP 15, STRESS PERIOD   8
 UBDSV1 SAVING "FLOW RIGHT FACE " ON UNIT 102 AT TIME STEP 15, STRESS PERIOD   8
 UBDSV1 SAVING "FLOW FRONT FACE " ON UNIT 102 AT TIME STEP 15, STRESS PERIOD   8

  HEAD DEP BOUNDS   PERIOD    8   STEP    15
 BOUNDARY      1   LAYER   1   ROW    13   COL     1   RATE   -0.290367    
 BOUNDARY      2   LAYER   1   ROW    14   COL     9   RATE    0.285762    



 STREAM LISTING     PERIOD      8   STEP       15

 LAYER ROW COL. STREAM  RCH.  FLOW INTO     FLOW TO   FLOW OUT OF   OVRLND.     DIRECT     STREAM       STREAM     STREAM     STREAM   STREAMBED  STREAMBED
                SEG.NO.  NO.  STRM. RCH.    AQUIFER    STRM. RCH.    RUNOFF     PRECIP       ET          HEAD       DEPTH      WIDTH   CONDCTNC.   GRADIENT

   1    1    1     1     1    5.6250E+01  3.5874E-01   5.5891E+01  0.000E+00  0.000E+00  0.000E+00  1.09453E+03  1.479E+00  1.780E+01  8.010E-02  1.493E+00
   1    2    2     1     2    5.5891E+01  5.5550E-01   5.5335E+01  0.000E+00  0.000E+00  0.000E+00  1.08953E+03  1.473E+00  1.774E+01  1.242E-01  1.491E+00
   1    3    3     1     3    5.5335E+01  4.7368E-01   5.4862E+01  0.000E+00  0.000E+00  0.000E+00  1.08389E+03  1.467E+00  1.767E+01  1.060E-01  1.489E+00
   1    3    4     1     4    5.4862E+01  4.3613E-01   5.4426E+01  0.000E+00  0.000E+00  0.000E+00  1.07887E+03  1.461E+00  1.762E+01  9.777E-02  1.487E+00
   1    4    5     2     1    5.2426E+01  3.8056E-01   5.2045E+01  0.000E+00  0.000E+00  0.000E+00  1.07381E+03  1.879E+00  1.200E+01  7.800E-02  1.626E+00
   1    5    6     2     2    5.2045E+01  2.9230E-01   5.1753E+01  0.000E+00  0.000E+00  0.000E+00  1.06838E+03  1.872E+00  1.200E+01  6.000E-02  1.624E+00
   1    6    6     2     3    5.1753E+01  2.9192E-01   5.1461E+01  0.000E+00  0.000E+00  0.000E+00  1.06366E+03  1.865E+00  1.200E+01  6.000E-02  1.622E+00
   1    7    6     2     4    5.1461E+01  2.9154E-01   5.1169E+01  0.000E+00  0.000E+00  0.000E+00  1.05893E+03  1.859E+00  1.200E+01  6.000E-02  1.620E+00
   1    8    6     2     5    5.1169E+01  2.9116E-01   5.0878E+01  0.000E+00  0.000E+00  0.000E+00  1.05421E+03  1.853E+00  1.200E+01  6.000E-02  1.618E+00
   1    3    5     3     1    2.0000E+00  2.8252E-01   1.7175E+00  0.000E+00  0.000E+00  0.000E+00  1.07555E+03  1.909E+00  9.636E+00  7.227E-02  1.955E+00
   1    3    6     3     2    1.7175E+00  2.4905E-01   1.4684E+00  0.000E+00  0.000E+00  0.000E+00  1.07264E+03  1.727E+00  8.909E+00  6.682E-02  1.864E+00
   1    3    7     3     3    1.4684E+00  1.9718E-01   1.2712E+00  0.000E+00  0.000E+00  0.000E+00  1.06987E+03  1.555E+00  8.218E+00  5.547E-02  1.777E+00
   1    4    8     3     4    1.2712E+00  2.2567E-01   1.0456E+00  0.000E+00  0.000E+00  0.000E+00  1.06682E+03  1.364E+00  7.455E+00  6.709E-02  1.682E+00
   1    5    8     3     5    1.0456E+00  1.5790E-01   8.8768E-01  0.000E+00  0.000E+00  0.000E+00  1.06362E+03  1.164E+00  6.655E+00  4.991E-02  1.582E+00
   1    6    8     3     6    8.8768E-01  5.5980E-02   8.3170E-01  0.000E+00  0.000E+00  0.000E+00  1.06158E+03  1.036E+00  6.145E+00  1.844E-02  1.518E+00
   1    5   10     4     1    1.0000E+01  9.0919E-02   9.9091E+00  0.000E+00  0.000E+00  0.000E+00  1.07836E+03  6.368E-01  1.000E+01  2.500E-02  1.212E+00
   1    5    9     4     2    9.9091E+00  1.8158E-01   9.7275E+00  0.000E+00  0.000E+00  0.000E+00  1.07154E+03  6.315E-01  1.000E+01  5.000E-02  1.211E+00
   1    6    8     4     3    9.7275E+00  1.2689E-01   9.6006E+00  0.000E+00  0.000E+00  0.000E+00  1.06381E+03  6.256E-01  1.000E+01  3.500E-02  1.209E+00
   1    6    8     5     1    1.0432E+01  2.2686E-01   1.0205E+01  0.000E+00  0.000E+00  0.000E+00  1.05868E+03  6.790E-01  1.542E+01  6.166E-02  1.226E+00
   1    7    7     5     2    1.0205E+01  2.7894E-01   9.9265E+00  0.000E+00  0.000E+00  0.000E+00  1.05417E+03  6.732E-01  1.519E+01  7.594E-02  1.224E+00
   1    8    7     5     3    9.9265E+00  1.9221E-01   9.7343E+00  0.000E+00  0.000E+00  0.000E+00  1.04992E+03  6.676E-01  1.497E+01  5.241E-02  1.223E+00
   1    8    6     5     4    9.7343E+00  1.3577E-01   9.5985E+00  0.000E+00  0.000E+00  0.000E+00  1.04691E+03  6.637E-01  1.482E+01  3.706E-02  1.221E+00
   1    9    6     6     1    9.5985E+00  2.2097E-01   9.3776E+00  0.000E+00  0.000E+00  0.000E+00  1.04341E+03  6.828E-01  1.200E+01  6.000E-02  1.228E+00
   1   10    7     6     2    9.3776E+00  2.2039E-01   9.1572E+00  0.000E+00  0.000E+00  0.000E+00  1.03885E+03  6.732E-01  1.200E+01  6.000E-02  1.224E+00
   1   11    7     6     3    9.1572E+00  2.1981E-01   8.9374E+00  0.000E+00  0.000E+00  0.000E+00  1.03430E+03  6.636E-01  1.200E+01  6.000E-02  1.221E+00
   1   12    7     6     4    8.9374E+00  2.1923E-01   8.7181E+00  0.000E+00  0.000E+00  0.000E+00  1.02974E+03  6.539E-01  1.200E+01  6.000E-02  1.218E+00
   1   13    7     6     5    8.7181E+00 -1.3771E-01   8.8558E+00  0.000E+00  0.000E+00  0.000E+00  1.02656E+03  6.520E-01  1.200E+01  2.400E-01 -1.913E-01
   1   14    9     7     1    1.5000E+02  1.3359E+00   1.4866E+02  0.000E+00  0.000E+00  0.000E+00  1.03987E+03  2.288E+00  5.529E+01  5.593E-01  7.961E-01
   1   13    8     7     2    1.4866E+02  1.8181E+00   1.4685E+02  0.000E+00  0.000E+00  0.000E+00  1.03478E+03  2.279E+00  5.526E+01  6.148E-01  9.858E-01
   1   13    7     7     3    1.4685E+02  1.4269E+00   1.4542E+02  0.000E+00  0.000E+00  0.000E+00  1.02969E+03  2.271E+00  5.522E+01  5.585E-01  8.517E-01
   1   13    6     8     1    1.5427E+02  7.8033E-01   1.5349E+02  0.000E+00  0.000E+00  0.000E+00  1.02472E+03  2.844E+00  4.124E+01  4.202E-01  6.190E-01
   1   13    5     8     2    1.5349E+02  5.7136E-02   1.5344E+02  0.000E+00  0.000E+00  0.000E+00  1.01847E+03  2.841E+00  4.120E+01  4.198E-01  4.537E-02
   1   13    4     8     3    1.5344E+02 -2.8973E+00   1.5633E+02  0.000E+00  0.000E+00  0.000E+00  1.01223E+03  2.851E+00  4.134E+01  4.212E+00 -2.293E-01
   1   13    3     8     4    1.5633E+02 -3.9503E+00   1.6029E+02  0.000E+00  0.000E+00  0.000E+00  1.00600E+03  2.874E+00  4.168E+01  4.247E+00 -3.100E-01
   1   13    2     8     5    1.6029E+02 -2.8455E+00   1.6313E+02  0.000E+00  0.000E+00  0.000E+00  9.99772E+02  2.897E+00  4.201E+01  4.281E+00 -2.216E-01
   1   13    1     8     6    1.6313E+02 -2.2013E+00   1.6533E+02  0.000E+00  0.000E+00  0.000E+00  9.94789E+02  2.914E+00  4.226E+01  2.584E+00 -2.840E-01
   1    8    6     9     1    5.0878E+01  0.0000E+00   5.0878E+01  0.000E+00  0.000E+00  0.000E+00  1.08476E+03  6.014E+00  4.000E+00  0.000E+00  3.005E+00
   1    8    5     9     2    5.0878E+01  0.0000E+00   5.0878E+01  0.000E+00  0.000E+00  0.000E+00  1.08426E+03  6.014E+00  4.000E+00  0.000E+00  3.005E+00



 UBDSV3 SAVING "           GW ET" ON UNIT  61 AT TIME STEP 15, STRESS PERIOD   8
 UBDSV3 SAVING "    UZF RECHARGE" ON UNIT  61 AT TIME STEP 15, STRESS PERIOD   8
 UBDSV3 SAVING " SURFACE LEAKAGE" ON UNIT  61 AT TIME STEP 15, STRESS PERIOD   8
 UBDSV3 SAVING "       HORT+DUNN" ON UNIT  61 AT TIME STEP 15, STRESS PERIOD   8
 UBDSV3 SAVING "  STORAGE CHANGE" ON UNIT  61 AT TIME STEP 15, STRESS PERIOD   8


UNSATURATED ZONE PACKAGE VOLUMETRIC BUDGET FOR  TIME STEP    15 STRESS PERIOD    8
  ------------------------------------------------------------------------------



     CUMULATIVE VOLUMES      L**3       RATES FOR THIS TIME STEP      L**3/T
     ------------------                 ------------------------

           IN:                                      IN:
           ---                                      ---
        INFILTRATION =   239879241.0789          INFILTRATION =          64.2153

          OUT:                                     OUT:
          ----                                     ----
              UZF ET =   220229352.3870                UZF ET =          64.0989
        UZF RECHARGE =       73224.0000          UZF RECHARGE =       0.0000E+00

            IN - OUT =    19576664.6919              IN - OUT =           0.1164

          STORAGE:                                 STORAGE:
          --------                                 --------
      STORAGE CHANGE =    19576662.0268        STORAGE CHANGE =           0.1164

 PERCENT DISCREPANCY IS DIFFERENCE BETWEEN IN-OUT MINUS CHANGE IN STORAGE
 DIVIDED BY THE AVERAGE OF IN AND OUT TIMES 100

 PERCENT DISCREPANCY =           0.00     PERCENT DISCREPANCY =           0.00






 

            AG WELLS      PERIOD    8   STEP  15
 AG WELL      1   LAYER   1   ROW     6   COL     4   RATE    -1.48812    
 AG WELL      2   LAYER   1   ROW     6   COL     5   RATE    -1.48812    
 AG WELL      3   LAYER   1   ROW     7   COL     4   RATE    -1.48812    
 AG WELL      4   LAYER   1   ROW     7   COL     5   RATE    -1.48812    
 AG WELL      5   LAYER   1   ROW     8   COL     4   RATE    -1.48812    
 AG WELL      6   LAYER   1   ROW     8   COL     5   RATE    -1.48812    
 
 

   DIVERSION SEGMENTS     PERIOD    8   STEP  15
 SEGMENT      9   RATE     50.8780    
 
 

        SW IRRIGATION     PERIOD    8   STEP  15
 SEGMENT      9   ROW     6   COL     4   RATE     8.47984    
 SEGMENT      9   ROW     6   COL     5   RATE     8.47984    
 SEGMENT      9   ROW     7   COL     4   RATE     8.47984    
 SEGMENT      9   ROW     7   COL     5   RATE     8.47984    
 SEGMENT      9   ROW     8   COL     4   RATE     8.47984    
 SEGMENT      9   ROW     8   COL     5   RATE     8.47984    
 
 

        GW IRRIGATION     PERIOD    8   STEP  15
 AG WELL      1   ROW     6   COL     4   RATE     1.48812    
 AG WELL      2   ROW     6   COL     5   RATE     1.48812    
 AG WELL      3   ROW     7   COL     4   RATE     1.48812    
 AG WELL      4   ROW     7   COL     5   RATE     1.48812    
 AG WELL      5   ROW     8   COL     4   RATE     1.48812    
 AG WELL      6   ROW     8   COL     5   RATE     1.48812    
 
1
  VOLUMETRIC BUDGET FOR AGRICULTURAL FIELDS AT TIME STEP   15, STRESS PERIOD   8
  ------------------------------------------------------------------------------

     CUMULATIVE VOLUMES      L**3       RATES FOR THIS TIME STEP      L**3/T
     ------------------                 ------------------------

           IN:                                      IN:
           ---                                      ---
               AG WELLS  =    11740863.0000                 AG WELLS  =           8.9287
      DIVERSION SEGMENTS =   152715856.0000        DIVERSION SEGMENTS =          50.8780
           GW IRRIGATION =           0.0000             GW IRRIGATION =           0.0000
           SW IRRIGATION =           0.0000             SW IRRIGATION =           0.0000
        SYSTEM LOSSES GW =           0.0000          SYSTEM LOSSES GW =           0.0000
        SYSTEM LOSSES SW =           0.0000          SYSTEM LOSSES SW =           0.0000

                TOTAL IN =   164456720.0000                  TOTAL IN =          59.8067

          OUT:                                     OUT:
          ----                                     ----
               AG WELLS  =           0.0000                 AG WELLS  =           0.0000
      DIVERSION SEGMENTS =           0.0000        DIVERSION SEGMENTS =           0.0000
           GW IRRIGATION =    11740863.0000             GW IRRIGATION =           8.9287
           SW IRRIGATION =   152718928.0000             SW IRRIGATION =          50.8790
        SYSTEM LOSSES GW =           0.0000          SYSTEM LOSSES GW =           0.0000
        SYSTEM LOSSES SW =           0.0000          SYSTEM LOSSES SW =           0.0000

               TOTAL OUT =   164459792.0000                 TOTAL OUT =          59.8078

                IN - OUT =       -3072.0000                  IN - OUT =      -1.0185E-03

     PERCENT DISCREPANCY =          -0.00         PERCENT DISCREPANCY =          -0.00



1
  VOLUMETRIC BUDGET FOR ENTIRE MODEL AT END OF TIME STEP   15, STRESS PERIOD   8
  ------------------------------------------------------------------------------

     CUMULATIVE VOLUMES      L**3       RATES FOR THIS TIME STEP      L**3/T
     ------------------                 ------------------------

           IN:                                      IN:
           ---                                      ---
             STORAGE     =    26148320.0000               STORAGE     =          10.1886
       CONSTANT HEAD     =           0.0000         CONSTANT HEAD     =           0.0000
     HEAD DEP BOUNDS     =     4909129.0000       HEAD DEP BOUNDS     =           0.2858
      STREAM LEAKAGE     =   210303152.0000        STREAM LEAKAGE     =          12.0718
        UZF RECHARGE     =       73223.9531          UZF RECHARGE     =           0.0000
               GW ET     =           0.0000                 GW ET     =           0.0000
     SURFACE LEAKAGE     =           0.0000       SURFACE LEAKAGE     =           0.0000
           AG WELLS      =           0.0000             AG WELLS      =           0.0000

                TOTAL IN =   241433824.0000                  TOTAL IN =          22.5461

          OUT:                                     OUT:
          ----                                     ----
             STORAGE     =    39466848.0000               STORAGE     =           1.2942
       CONSTANT HEAD     =           0.0000         CONSTANT HEAD     =           0.0000
     HEAD DEP BOUNDS     =     5016768.0000       HEAD DEP BOUNDS     =           0.2904
      STREAM LEAKAGE     =   183670352.0000        STREAM LEAKAGE     =          12.0322
        UZF RECHARGE     =           0.0000          UZF RECHARGE     =           0.0000
               GW ET     =     1532013.0000                 GW ET     =           0.0000
     SURFACE LEAKAGE     =           0.0000       SURFACE LEAKAGE     =           0.0000
           AG WELLS      =    11740863.0000             AG WELLS      =           8.9287

               TOTAL OUT =   241426848.0000                 TOTAL OUT =          22.5455

                IN - OUT =        6976.0000                  IN - OUT =       6.6376E-04

     PERCENT DISCREPANCY =           0.00         PERCENT DISCREPANCY =           0.00






         TIME SUMMARY AT END OF TIME STEP   15 IN STRESS PERIOD    8
                    SECONDS     MINUTES      HOURS       DAYS        YEARS
                    -----------------------------------------------------------
   TIME STEP LENGTH  87667.      1461.1      24.352      1.0147     2.77799E-03
 STRESS PERIOD TIME 1.31500E+06  21917.      365.28      15.220     4.16698E-02
         TOTAL TIME 1.71814E+07 2.86357E+05  4772.6      198.86     0.54445    
1
 
 SOLVING FOR HEAD 
                                                   Max.-Head-Change                         Max.-Flux-Residual
  Residual-Control   Outer-Iter.   Inner-Iter.     Column Row Layer    Maximum-Head-Change  Column Row Layer    Maximum-Flux-Residual          L2-NORM 
          0                 1           2             4    7     1      -0.2422203543E-01       4    7    1        -0.1270814465E+01      0.3194390299E+01
          0                 2           2             4   13     1      -0.2088086485E-01       4   13    1        -0.1227383509E+01      0.2152702097E+01
          0                 3           2             7   13     1      -0.1926392007E-02       7   13    1        -0.1075284552E+00      0.1881792473E+00
          0                 4           2             7   13     1       0.1311210076E-03       7   13    1         0.7517431083E-02      0.1556326168E-01
          0                 5           1             4    7     1      -0.4846387919E-04       4    7    1        -0.2674175484E-02      0.6552834244E-02

    ------------------------------------------------
       NWT REQUIRED            5 OUTER ITERATIONS 
       AND A TOTAL OF          9 INNER ITERATIONS.
    ------------------------------------------------

 NO OUTPUT CONTROL FOR STRESS PERIOD    8   TIME STEP   16
 
 SOLVING FOR HEAD 
                                                   Max.-Head-Change                         Max.-Flux-Residual
  Residual-Control   Outer-Iter.   Inner-Iter.     Column Row Layer    Maximum-Head-Change  Column Row Layer    Maximum-Flux-Residual          L2-NORM 
          0                 1           2             4    7     1      -0.2397969349E-01       4    7    1        -0.1258302011E+01      0.3178699510E+01
          0                 2           2             4   13     1      -0.2092584955E-01       4   13    1        -0.1230026284E+01      0.2157436099E+01
          0                 3           2             7   13     1      -0.1919645814E-02       7   13    1        -0.1071528453E+00      0.1881690091E+00
          0                 4           2             7   13     1       0.1306588379E-03       7   13    1         0.7490972132E-02      0.1557749597E-01
          0                 5           1             4    7     1      -0.4852455723E-04       4    7    1        -0.2677524205E-02      0.6560767465E-02

    ------------------------------------------------
       NWT REQUIRED            5 OUTER ITERATIONS 
       AND A TOTAL OF          9 INNER ITERATIONS.
    ------------------------------------------------

 NO OUTPUT CONTROL FOR STRESS PERIOD    8   TIME STEP   17
 
 SOLVING FOR HEAD 
                                                   Max.-Head-Change                         Max.-Flux-Residual
  Residual-Control   Outer-Iter.   Inner-Iter.     Column Row Layer    Maximum-Head-Change  Column Row Layer    Maximum-Flux-Residual          L2-NORM 
          0                 1           2             4    7     1      -0.2373615110E-01       4    7    1        -0.1245705993E+01      0.3163495668E+01
          0                 2           2             4   13     1      -0.2096690103E-01       4   13    1        -0.1232437081E+01      0.2161821887E+01
          0                 3           2             7   13     1      -0.1913078627E-02       7   13    1        -0.1067872011E+00      0.1881467345E+00
          0                 4           2             7   13     1       0.1302141235E-03       7   13    1         0.7465509373E-02      0.1559241892E-01
          0                 5           1             4    7     1      -0.4858577845E-04       4    7    1        -0.2680902624E-02      0.6568887359E-02

    ------------------------------------------------
       NWT REQUIRED            5 OUTER ITERATIONS 
       AND A TOTAL OF          9 INNER ITERATIONS.
    ------------------------------------------------

 NO OUTPUT CONTROL FOR STRESS PERIOD    8   TIME STEP   18
 
 SOLVING FOR HEAD 
                                                   Max.-Head-Change                         Max.-Flux-Residual
  Residual-Control   Outer-Iter.   Inner-Iter.     Column Row Layer    Maximum-Head-Change  Column Row Layer    Maximum-Flux-Residual          L2-NORM 
          0                 1           2             4    7     1      -0.2349181259E-01       4    7    1        -0.1233048332E+01      0.3148734936E+01
          0                 2           2             4   13     1      -0.2100454116E-01       4   13    1        -0.1234646803E+01      0.2165892638E+01
          0                 3           2             7   13     1      -0.1906680967E-02       7   13    1        -0.1064309982E+00      0.1881170157E+00
          0                 4           2             7   13     1       0.1297781813E-03       7   13    1         0.7440549593E-02      0.1560741531E-01
          0                 5           1             4    7     1      -0.4864698664E-04       4    7    1        -0.2684280042E-02      0.6576997455E-02

    ------------------------------------------------
       NWT REQUIRED            5 OUTER ITERATIONS 
       AND A TOTAL OF          9 INNER ITERATIONS.
    ------------------------------------------------

 NO OUTPUT CONTROL FOR STRESS PERIOD    8   TIME STEP   19
 
 SOLVING FOR HEAD 
                                                   Max.-Head-Change                         Max.-Flux-Residual
  Residual-Control   Outer-Iter.   Inner-Iter.     Column Row Layer    Maximum-Head-Change  Column Row Layer    Maximum-Flux-Residual          L2-NORM 
          0                 1           2             4    7     1      -0.2324701332E-01       4    7    1        -0.1220348797E+01      0.3134360846E+01
          0                 2           2             4   13     1      -0.2103899946E-01       4   13    1        -0.1236669002E+01      0.2169669653E+01
          0                 3           2             7   13     1      -0.1900452088E-02       7   13    1        -0.1060841957E+00      0.1880781115E+00
          0                 4           2             7   13     1       0.1293545281E-03       7   13    1         0.7416295254E-02      0.1562317478E-01
          0                 5           1             4    7     1      -0.4870775131E-04       4    7    1        -0.2687632791E-02      0.6585104882E-02

    ------------------------------------------------
       NWT REQUIRED            5 OUTER ITERATIONS 
       AND A TOTAL OF          9 INNER ITERATIONS.
    ------------------------------------------------

 NO OUTPUT CONTROL FOR STRESS PERIOD    8   TIME STEP   20
 
 SOLVING FOR HEAD 
                                                   Max.-Head-Change                         Max.-Flux-Residual
  Residual-Control   Outer-Iter.   Inner-Iter.     Column Row Layer    Maximum-Head-Change  Column Row Layer    Maximum-Flux-Residual          L2-NORM 
          0                 1           2             4    7     1      -0.2300209031E-01       4    7    1        -0.1207625966E+01      0.3120343917E+01
          0                 2           2             4   13     1      -0.2107058504E-01       4   13    1        -0.1238521967E+01      0.2173173760E+01
          0                 3           2             7   13     1      -0.1894381851E-02       7   13    1        -0.1057462800E+00      0.1880325984E+00
          0                 4           2             7   13     1       0.1289407167E-03       7   13    1         0.7392581974E-02      0.1563767423E-01
          0                 5           1             4    7     1      -0.4876886507E-04       4    7    1        -0.2691004564E-02      0.6593210421E-02

    ------------------------------------------------
       NWT REQUIRED            5 OUTER ITERATIONS 
       AND A TOTAL OF          9 INNER ITERATIONS.
    ------------------------------------------------

 NO OUTPUT CONTROL FOR STRESS PERIOD    8   TIME STEP   21
 
 SOLVING FOR HEAD 
                                                   Max.-Head-Change                         Max.-Flux-Residual
  Residual-Control   Outer-Iter.   Inner-Iter.     Column Row Layer    Maximum-Head-Change  Column Row Layer    Maximum-Flux-Residual          L2-NORM 
          0                 1           2             4    7     1      -0.2275761882E-01       4    7    1        -0.1194911420E+01      0.3106656035E+01
          0                 2           2             4   13     1      -0.2109959607E-01       4   13    1        -0.1240223281E+01      0.2176431476E+01
          0                 3           2             7   13     1      -0.1888467261E-02       7   13    1        -0.1054169795E+00      0.1879806259E+00
          0                 4           2             7   13     1       0.1285390339E-03       7   13    1         0.7369584980E-02      0.1565192627E-01
          0                 5           1             4    7     1      -0.4884312297E-04       4    7    1        -0.2695101397E-02      0.6603146707E-02

    ------------------------------------------------
       NWT REQUIRED            5 OUTER ITERATIONS 
       AND A TOTAL OF          9 INNER ITERATIONS.
    ------------------------------------------------

 NO OUTPUT CONTROL FOR STRESS PERIOD    8   TIME STEP   22
 
 SOLVING FOR HEAD 
                                                   Max.-Head-Change                         Max.-Flux-Residual
  Residual-Control   Outer-Iter.   Inner-Iter.     Column Row Layer    Maximum-Head-Change  Column Row Layer    Maximum-Flux-Residual          L2-NORM 
          0                 1           2             4    7     1      -0.2251330646E-01       4    7    1        -0.1182190304E+01      0.3093263449E+01
          0                 2           2             4   13     1      -0.2112623295E-01       4   13    1        -0.1241784820E+01      0.2179455792E+01
          0                 3           2             7   13     1      -0.1882701773E-02       7   13    1        -0.1050959808E+00      0.1880171297E+00
          0                 4           2             7   13     1       0.1281461491E-03       7   13    1         0.7347091608E-02      0.1567767805E-01
          0                 5           1             4    7     1      -0.4890334044E-04       4    7    1        -0.2698423340E-02      0.6611224765E-02

    ------------------------------------------------
       NWT REQUIRED            5 OUTER ITERATIONS 
       AND A TOTAL OF          9 INNER ITERATIONS.
    ------------------------------------------------

 NO OUTPUT CONTROL FOR STRESS PERIOD    8   TIME STEP   23
 
 SOLVING FOR HEAD 
                                                   Max.-Head-Change                         Max.-Flux-Residual
  Residual-Control   Outer-Iter.   Inner-Iter.     Column Row Layer    Maximum-Head-Change  Column Row Layer    Maximum-Flux-Residual          L2-NORM 
          0                 1           2             4    7     1      -0.2226996935E-01       4    7    1        -0.1169507418E+01      0.3080155466E+01
          0                 2           2             4   13     1      -0.2115070412E-01       4   13    1        -0.1243218864E+01      0.2182267192E+01
          0                 3           2             7   13     1      -0.1877082032E-02       7   13    1        -0.1047830983E+00      0.1879530624E+00
          0                 4           2             7   13     1       0.1277581270E-03       7   13    1         0.7324881929E-02      0.1569103497E-01
          0                 5           1             4    7     1      -0.4896242185E-04       4    7    1        -0.2701682421E-02      0.6619093375E-02

    ------------------------------------------------
       NWT REQUIRED            5 OUTER ITERATIONS 
       AND A TOTAL OF          9 INNER ITERATIONS.
    ------------------------------------------------

 NO OUTPUT CONTROL FOR STRESS PERIOD    8   TIME STEP   24
 
 SOLVING FOR HEAD 
                                                   Max.-Head-Change                         Max.-Flux-Residual
  Residual-Control   Outer-Iter.   Inner-Iter.     Column Row Layer    Maximum-Head-Change  Column Row Layer    Maximum-Flux-Residual          L2-NORM 
          0                 1           2             4    7     1      -0.2202754347E-01       4    7    1        -0.1156859818E+01      0.3067302086E+01
          0                 2           2             4   13     1      -0.2117324166E-01       4   13    1        -0.1244539127E+01      0.2184882770E+01
          0                 3           2             7   13     1      -0.1871600917E-02       7   13    1        -0.1044779361E+00      0.1878859962E+00
          0                 4           2             7   13     1       0.1273903082E-03       7   13    1         0.7303818872E-02      0.1570667941E-01
          0                 5           1             4    7     1      -0.4903619314E-04       4    7    1        -0.2705751879E-02      0.6629009428E-02

    ------------------------------------------------
       NWT REQUIRED            5 OUTER ITERATIONS 
       AND A TOTAL OF          9 INNER ITERATIONS.
    ------------------------------------------------

 NO OUTPUT CONTROL FOR STRESS PERIOD    8   TIME STEP   25
 
 SOLVING FOR HEAD 
                                                   Max.-Head-Change                         Max.-Flux-Residual
  Residual-Control   Outer-Iter.   Inner-Iter.     Column Row Layer    Maximum-Head-Change  Column Row Layer    Maximum-Flux-Residual          L2-NORM 
          0                 1           2             4    7     1      -0.2178652577E-01       4    7    1        -0.1144274859E+01      0.3054700427E+01
          0                 2           2             4   13     1      -0.2119399362E-01       4   13    1        -0.1245754368E+01      0.2187314772E+01
          0                 3           2             7   13     1      -0.1866254747E-02       7   13    1        -0.1041802964E+00      0.1878123540E+00
          0                 4           2             7   13     1       0.1270255506E-03       7   13    1         0.7282937638E-02      0.1572150834E-01
          0                 5           1             4    7     1      -0.4909474699E-04       4    7    1        -0.2708981561E-02      0.6636848661E-02

    ------------------------------------------------
       NWT REQUIRED            5 OUTER ITERATIONS 
       AND A TOTAL OF          9 INNER ITERATIONS.
    ------------------------------------------------

 NO OUTPUT CONTROL FOR STRESS PERIOD    8   TIME STEP   26
 
 SOLVING FOR HEAD 
                                                   Max.-Head-Change                         Max.-Flux-Residual
  Residual-Control   Outer-Iter.   Inner-Iter.     Column Row Layer    Maximum-Head-Change  Column Row Layer    Maximum-Flux-Residual          L2-NORM 
          0                 1           2             4    7     1      -0.2154654919E-01       4    7    1        -0.1131733311E+01      0.3042325695E+01
          0                 2           2             4   13     1      -0.2121312204E-01       4   13    1        -0.1246874106E+01      0.2189578829E+01
          0                 3           2             7   13     1      -0.1861041642E-02       7   13    1        -0.1038900510E+00      0.1877373757E+00
          0                 4           2             7   13     1       0.1266714914E-03       7   13    1         0.7262666374E-02      0.1573585692E-01
          0                 5           1             4    7     1      -0.4916907637E-04       4    7    1        -0.2713081553E-02      0.6646814749E-02

    ------------------------------------------------
       NWT REQUIRED            5 OUTER ITERATIONS 
       AND A TOTAL OF          9 INNER ITERATIONS.
    ------------------------------------------------

 NO OUTPUT CONTROL FOR STRESS PERIOD    8   TIME STEP   27
 
 SOLVING FOR HEAD 
                                                   Max.-Head-Change                         Max.-Flux-Residual
  Residual-Control   Outer-Iter.   Inner-Iter.     Column Row Layer    Maximum-Head-Change  Column Row Layer    Maximum-Flux-Residual          L2-NORM 
          0                 1           2             4    7     1      -0.2130833300E-01       4    7    1        -0.1119274761E+01      0.3030181666E+01
          0                 2           2             4   13     1      -0.2123077819E-01       4   13    1        -0.1247907275E+01      0.2191688020E+01
          0                 3           2             7   13     1      -0.1855951786E-02       7   13    1        -0.1036066754E+00      0.1876578837E+00
          0                 4           2             7   13     1       0.1263234984E-03       7   13    1         0.7242742126E-02      0.1575077039E-01
          0                 5           1             4    7     1      -0.4922982021E-04       4    7    1        -0.2716431814E-02      0.6655000738E-02

    ------------------------------------------------
       NWT REQUIRED            5 OUTER ITERATIONS 
       AND A TOTAL OF          9 INNER ITERATIONS.
    ------------------------------------------------

 NO OUTPUT CONTROL FOR STRESS PERIOD    8   TIME STEP   28
 
 SOLVING FOR HEAD 
                                                   Max.-Head-Change                         Max.-Flux-Residual
  Residual-Control   Outer-Iter.   Inner-Iter.     Column Row Layer    Maximum-Head-Change  Column Row Layer    Maximum-Flux-Residual          L2-NORM 
          0                 1           2             4    7     1      -0.2107175709E-01       4    7    1        -0.1106893160E+01      0.3018239221E+01
          0                 2           2             4   13     1      -0.2124710259E-01       4   13    1        -0.1248862251E+01      0.2193651358E+01
          0                 3           2             7   13     1      -0.1850985935E-02       7   13    1        -0.1033302086E+00      0.1875767574E+00
          0                 4           2             7   13     1       0.1259849872E-03       7   13    1         0.7223362723E-02      0.1576590287E-01
          0                 5           1             4    7     1      -0.4929060191E-04       4    7    1        -0.2719784040E-02      0.6663160766E-02

    ------------------------------------------------
       NWT REQUIRED            5 OUTER ITERATIONS 
       AND A TOTAL OF          9 INNER ITERATIONS.
    ------------------------------------------------

 NO OUTPUT CONTROL FOR STRESS PERIOD    8   TIME STEP   29
 
 SOLVING FOR HEAD 
                                                   Max.-Head-Change                         Max.-Flux-Residual
  Residual-Control   Outer-Iter.   Inner-Iter.     Column Row Layer    Maximum-Head-Change  Column Row Layer    Maximum-Flux-Residual          L2-NORM 
          0                 1           2             4    7     1      -0.2083697015E-01       4    7    1        -0.1094596847E+01      0.3006513018E+01
          0                 2           2             4   13     1      -0.2126218823E-01       4   13    1        -0.1249744416E+01      0.2195482331E+01
          0                 3           2             7   13     1      -0.1846141342E-02       7   13    1        -0.1030604917E+00      0.1874929403E+00
          0                 4           2             7   13     1       0.1256589549E-03       7   13    1         0.7204698528E-02      0.1578029367E-01
          0                 5           1             4    7     1      -0.4936455024E-04       4    7    1        -0.2723862689E-02      0.6673107485E-02

    ------------------------------------------------
       NWT REQUIRED            5 OUTER ITERATIONS 
       AND A TOTAL OF          9 INNER ITERATIONS.
    ------------------------------------------------

 NO OUTPUT CONTROL FOR STRESS PERIOD    8   TIME STEP   30



 STREAM LISTING     PERIOD      8   STEP       30

 LAYER ROW COL. STREAM  RCH.  FLOW INTO     FLOW TO   FLOW OUT OF   OVRLND.     DIRECT     STREAM       STREAM     STREAM     STREAM   STREAMBED  STREAMBED
                SEG.NO.  NO.  STRM. RCH.    AQUIFER    STRM. RCH.    RUNOFF     PRECIP       ET          HEAD       DEPTH      WIDTH   CONDCTNC.   GRADIENT

   1    1    1     1     1    5.6250E+01  3.5874E-01   5.5891E+01  0.000E+00  0.000E+00  0.000E+00  1.09453E+03  1.479E+00  1.780E+01  8.010E-02  1.493E+00
   1    2    2     1     2    5.5891E+01  5.5550E-01   5.5335E+01  0.000E+00  0.000E+00  0.000E+00  1.08953E+03  1.473E+00  1.774E+01  1.242E-01  1.491E+00
   1    3    3     1     3    5.5335E+01  4.7368E-01   5.4862E+01  0.000E+00  0.000E+00  0.000E+00  1.08389E+03  1.467E+00  1.767E+01  1.060E-01  1.489E+00
   1    3    4     1     4    5.4862E+01  4.3613E-01   5.4426E+01  0.000E+00  0.000E+00  0.000E+00  1.07887E+03  1.461E+00  1.762E+01  9.777E-02  1.487E+00
   1    4    5     2     1    5.2426E+01  3.8056E-01   5.2045E+01  0.000E+00  0.000E+00  0.000E+00  1.07381E+03  1.879E+00  1.200E+01  7.800E-02  1.626E+00
   1    5    6     2     2    5.2045E+01  2.9230E-01   5.1753E+01  0.000E+00  0.000E+00  0.000E+00  1.06838E+03  1.872E+00  1.200E+01  6.000E-02  1.624E+00
   1    6    6     2     3    5.1753E+01  2.9192E-01   5.1461E+01  0.000E+00  0.000E+00  0.000E+00  1.06366E+03  1.865E+00  1.200E+01  6.000E-02  1.622E+00
   1    7    6     2     4    5.1461E+01  2.9154E-01   5.1169E+01  0.000E+00  0.000E+00  0.000E+00  1.05893E+03  1.859E+00  1.200E+01  6.000E-02  1.620E+00
   1    8    6     2     5    5.1169E+01  2.9116E-01   5.0878E+01  0.000E+00  0.000E+00  0.000E+00  1.05421E+03  1.853E+00  1.200E+01  6.000E-02  1.618E+00
   1    3    5     3     1    2.0000E+00  2.8252E-01   1.7175E+00  0.000E+00  0.000E+00  0.000E+00  1.07555E+03  1.909E+00  9.636E+00  7.227E-02  1.955E+00
   1    3    6     3     2    1.7175E+00  2.4905E-01   1.4684E+00  0.000E+00  0.000E+00  0.000E+00  1.07264E+03  1.727E+00  8.909E+00  6.682E-02  1.864E+00
   1    3    7     3     3    1.4684E+00  1.9718E-01   1.2712E+00  0.000E+00  0.000E+00  0.000E+00  1.06987E+03  1.555E+00  8.218E+00  5.547E-02  1.777E+00
   1    4    8     3     4    1.2712E+00  2.2567E-01   1.0456E+00  0.000E+00  0.000E+00  0.000E+00  1.06682E+03  1.364E+00  7.455E+00  6.709E-02  1.682E+00
   1    5    8     3     5    1.0456E+00  1.5790E-01   8.8768E-01  0.000E+00  0.000E+00  0.000E+00  1.06362E+03  1.164E+00  6.655E+00  4.991E-02  1.582E+00
   1    6    8     3     6    8.8768E-01  5.5980E-02   8.3170E-01  0.000E+00  0.000E+00  0.000E+00  1.06158E+03  1.036E+00  6.145E+00  1.844E-02  1.518E+00
   1    5   10     4     1    1.0000E+01  9.0919E-02   9.9091E+00  0.000E+00  0.000E+00  0.000E+00  1.07836E+03  6.368E-01  1.000E+01  2.500E-02  1.212E+00
   1    5    9     4     2    9.9091E+00  1.8158E-01   9.7275E+00  0.000E+00  0.000E+00  0.000E+00  1.07154E+03  6.315E-01  1.000E+01  5.000E-02  1.211E+00
   1    6    8     4     3    9.7275E+00  1.2689E-01   9.6006E+00  0.000E+00  0.000E+00  0.000E+00  1.06381E+03  6.256E-01  1.000E+01  3.500E-02  1.209E+00
   1    6    8     5     1    1.0432E+01  2.2686E-01   1.0205E+01  0.000E+00  0.000E+00  0.000E+00  1.05868E+03  6.790E-01  1.542E+01  6.166E-02  1.226E+00
   1    7    7     5     2    1.0205E+01  2.7894E-01   9.9265E+00  0.000E+00  0.000E+00  0.000E+00  1.05417E+03  6.732E-01  1.519E+01  7.594E-02  1.224E+00
   1    8    7     5     3    9.9265E+00  1.9221E-01   9.7343E+00  0.000E+00  0.000E+00  0.000E+00  1.04992E+03  6.676E-01  1.497E+01  5.241E-02  1.223E+00
   1    8    6     5     4    9.7343E+00  1.3577E-01   9.5985E+00  0.000E+00  0.000E+00  0.000E+00  1.04691E+03  6.637E-01  1.482E+01  3.706E-02  1.221E+00
   1    9    6     6     1    9.5985E+00  2.2097E-01   9.3776E+00  0.000E+00  0.000E+00  0.000E+00  1.04341E+03  6.828E-01  1.200E+01  6.000E-02  1.228E+00
   1   10    7     6     2    9.3776E+00  2.2039E-01   9.1572E+00  0.000E+00  0.000E+00  0.000E+00  1.03885E+03  6.732E-01  1.200E+01  6.000E-02  1.224E+00
   1   11    7     6     3    9.1572E+00  2.1981E-01   8.9374E+00  0.000E+00  0.000E+00  0.000E+00  1.03430E+03  6.636E-01  1.200E+01  6.000E-02  1.221E+00
   1   12    7     6     4    8.9374E+00  2.1923E-01   8.7181E+00  0.000E+00  0.000E+00  0.000E+00  1.02974E+03  6.539E-01  1.200E+01  6.000E-02  1.218E+00
   1   13    7     6     5    8.7181E+00 -1.3291E-01   8.8510E+00  0.000E+00  0.000E+00  0.000E+00  1.02656E+03  6.519E-01  1.200E+01  2.400E-01 -1.846E-01
   1   14    9     7     1    1.5000E+02  1.3358E+00   1.4866E+02  0.000E+00  0.000E+00  0.000E+00  1.03987E+03  2.288E+00  5.529E+01  5.593E-01  7.961E-01
   1   13    8     7     2    1.4866E+02  1.8195E+00   1.4684E+02  0.000E+00  0.000E+00  0.000E+00  1.03478E+03  2.279E+00  5.526E+01  6.148E-01  9.865E-01
   1   13    7     7     3    1.4684E+02  1.4381E+00   1.4541E+02  0.000E+00  0.000E+00  0.000E+00  1.02969E+03  2.271E+00  5.522E+01  5.585E-01  8.584E-01
   1   13    6     8     1    1.5426E+02  7.9070E-01   1.5347E+02  0.000E+00  0.000E+00  0.000E+00  1.02472E+03  2.844E+00  4.124E+01  4.202E-01  6.272E-01
   1   13    5     8     2    1.5347E+02  6.7589E-02   1.5340E+02  0.000E+00  0.000E+00  0.000E+00  1.01847E+03  2.841E+00  4.119E+01  4.198E-01  5.367E-02
   1   13    4     8     3    1.5340E+02 -2.7915E+00   1.5619E+02  0.000E+00  0.000E+00  0.000E+00  1.01223E+03  2.850E+00  4.133E+01  4.212E+00 -2.209E-01
   1   13    3     8     4    1.5619E+02 -3.8415E+00   1.6003E+02  0.000E+00  0.000E+00  0.000E+00  1.00600E+03  2.873E+00  4.166E+01  4.245E+00 -3.016E-01
   1   13    2     8     5    1.6003E+02 -2.6957E+00   1.6273E+02  0.000E+00  0.000E+00  0.000E+00  9.99770E+02  2.895E+00  4.198E+01  4.278E+00 -2.100E-01
   1   13    1     8     6    1.6273E+02 -2.0926E+00   1.6482E+02  0.000E+00  0.000E+00  0.000E+00  9.94786E+02  2.911E+00  4.221E+01  2.581E+00 -2.703E-01
   1    8    6     9     1    5.0878E+01  0.0000E+00   5.0878E+01  0.000E+00  0.000E+00  0.000E+00  1.08476E+03  6.014E+00  4.000E+00  0.000E+00  3.005E+00
   1    8    5     9     2    5.0878E+01  0.0000E+00   5.0878E+01  0.000E+00  0.000E+00  0.000E+00  1.08426E+03  6.014E+00  4.000E+00  0.000E+00  3.005E+00





UNSATURATED ZONE PACKAGE VOLUMETRIC BUDGET FOR  TIME STEP    30 STRESS PERIOD    8
  ------------------------------------------------------------------------------



     CUMULATIVE VOLUMES      L**3       RATES FOR THIS TIME STEP      L**3/T
     ------------------                 ------------------------

           IN:                                      IN:
           ---                                      ---
        INFILTRATION =   324322052.8064          INFILTRATION =          64.2149

          OUT:                                     OUT:
          ----                                     ----
              UZF ET =   304519249.2395                UZF ET =          64.0987
        UZF RECHARGE =       73224.0000          UZF RECHARGE =       0.0000E+00

            IN - OUT =    19729579.5669              IN - OUT =           0.1162

          STORAGE:                                 STORAGE:
          --------                                 --------
      STORAGE CHANGE =    19729575.5005        STORAGE CHANGE =           0.1162

 PERCENT DISCREPANCY IS DIFFERENCE BETWEEN IN-OUT MINUS CHANGE IN STORAGE
 DIVIDED BY THE AVERAGE OF IN AND OUT TIMES 100

 PERCENT DISCREPANCY =           0.00     PERCENT DISCREPANCY =           0.00






1
  VOLUMETRIC BUDGET FOR AGRICULTURAL FIELDS AT TIME STEP   30, STRESS PERIOD   8
  ------------------------------------------------------------------------------

     CUMULATIVE VOLUMES      L**3       RATES FOR THIS TIME STEP      L**3/T
     ------------------                 ------------------------

           IN:                                      IN:
           ---                                      ---
               AG WELLS  =    23481878.0000                 AG WELLS  =           8.9284
      DIVERSION SEGMENTS =   219620416.0000        DIVERSION SEGMENTS =          50.8780
           GW IRRIGATION =           0.0000             GW IRRIGATION =           0.0000
           SW IRRIGATION =           0.0000             SW IRRIGATION =           0.0000
        SYSTEM LOSSES GW =           0.0000          SYSTEM LOSSES GW =           0.0000
        SYSTEM LOSSES SW =           0.0000          SYSTEM LOSSES SW =           0.0000

                TOTAL IN =   243102288.0000                  TOTAL IN =          59.8064

          OUT:                                     OUT:
          ----                                     ----
               AG WELLS  =           0.0000                 AG WELLS  =           0.0000
      DIVERSION SEGMENTS =           0.0000        DIVERSION SEGMENTS =           0.0000
           GW IRRIGATION =    23481878.0000             GW IRRIGATION =           8.9284
           SW IRRIGATION =   219624928.0000             SW IRRIGATION =          50.8790
        SYSTEM LOSSES GW =           0.0000          SYSTEM LOSSES GW =           0.0000
        SYSTEM LOSSES SW =           0.0000          SYSTEM LOSSES SW =           0.0000

               TOTAL OUT =   243106800.0000                 TOTAL OUT =          59.8074

                IN - OUT =       -4512.0000                  IN - OUT =      -1.0185E-03

     PERCENT DISCREPANCY =          -0.00         PERCENT DISCREPANCY =          -0.00



1
  VOLUMETRIC BUDGET FOR ENTIRE MODEL AT END OF TIME STEP   30, STRESS PERIOD   8
  ------------------------------------------------------------------------------

     CUMULATIVE VOLUMES      L**3       RATES FOR THIS TIME STEP      L**3/T
     ------------------                 ------------------------

           IN:                                      IN:
           ---                                      ---
             STORAGE     =    38993064.0000               STORAGE     =           9.4856
       CONSTANT HEAD     =           0.0000         CONSTANT HEAD     =           0.0000
     HEAD DEP BOUNDS     =     5284902.0000       HEAD DEP BOUNDS     =           0.2858
      STREAM LEAKAGE     =   226202064.0000        STREAM LEAKAGE     =          12.1051
        UZF RECHARGE     =       73223.9531          UZF RECHARGE     =           0.0000
               GW ET     =           0.0000                 GW ET     =           0.0000
     SURFACE LEAKAGE     =           0.0000       SURFACE LEAKAGE     =           0.0000
           AG WELLS      =           0.0000             AG WELLS      =           0.0000

                TOTAL IN =   270553248.0000                  TOTAL IN =          21.8764

          OUT:                                     OUT:
          ----                                     ----
             STORAGE     =    41027980.0000               STORAGE     =           1.1046
       CONSTANT HEAD     =           0.0000         CONSTANT HEAD     =           0.0000
     HEAD DEP BOUNDS     =     5397297.5000       HEAD DEP BOUNDS     =           0.2887
      STREAM LEAKAGE     =   199106240.0000        STREAM LEAKAGE     =          11.5542
        UZF RECHARGE     =           0.0000          UZF RECHARGE     =           0.0000
               GW ET     =     1532013.0000                 GW ET     =           0.0000
     SURFACE LEAKAGE     =           0.0000       SURFACE LEAKAGE     =           0.0000
           AG WELLS      =    23481878.0000             AG WELLS      =           8.9284

               TOTAL OUT =   270545408.0000                 TOTAL OUT =          21.8758

                IN - OUT =        7840.0000                  IN - OUT =       6.7139E-04

     PERCENT DISCREPANCY =           0.00         PERCENT DISCREPANCY =           0.00






         TIME SUMMARY AT END OF TIME STEP   30 IN STRESS PERIOD    8
                    SECONDS     MINUTES      HOURS       DAYS        YEARS
                    -----------------------------------------------------------
   TIME STEP LENGTH  87667.      1461.1      24.352      1.0147     2.77799E-03
 STRESS PERIOD TIME 2.63000E+06  43833.      730.56      30.440     8.33397E-02
         TOTAL TIME 1.84964E+07 3.08274E+05  5137.9      214.08     0.58612    
1
1
                            STRESS PERIOD NO.    9, LENGTH =   2630000.    
                            -----------------------------------------------

                              NUMBER OF TIME STEPS =    30

                               MULTIPLIER FOR DELT =     1.000

                            INITIAL TIME STEP SIZE =   87666.66    

 REUSING NON-PARAMETER GHB CELLS FROM LAST STRESS PERIOD

      2 GHB CELLS

 REUSING STREAM SEGMENT DATA FROM LAST STRESS PERIOD



            AREAL INFILTRATION RATE
 READING ON UNIT   19 WITH FORMAT: (10F4.0)            

            1           2           3           4           5           6           7           8           9          10
 ........................................................................................................................
   1   1.2000E-09   0.000       0.000       0.000       0.000       0.000       0.000       0.000       0.000       0.000    
   2   2.1000E-09  2.0000E-09  8.0000E-10  8.5000E-09   0.000       0.000       0.000       0.000       0.000       0.000    
   3   5.0000E-10  1.1000E-09  8.8000E-09  5.5000E-09   0.000       0.000       0.000       0.000       0.000       0.000    
   4   8.5000E-09  1.1000E-09  1.1000E-09  1.1000E-09  2.0000E-09   0.000       0.000       0.000       0.000       0.000    
   5   8.5000E-09  1.1000E-09  1.1000E-09  1.1000E-09  1.1000E-09   0.000       0.000       0.000       0.000       0.000    
   6   8.5000E-09  5.2000E-09  2.1000E-09  1.1000E-09  1.5000E-09   0.000       0.000       0.000       0.000       0.000    
   7   8.5000E-09  5.2000E-09  2.1000E-09  1.2000E-09  2.0000E-09   0.000       0.000       0.000       0.000       0.000    
   8   5.0000E-10  5.2000E-09  2.1000E-09  1.2000E-09  5.0000E-09   0.000       0.000       0.000       0.000       0.000    
   9   5.0000E-10  5.2000E-09  2.1000E-09  1.2000E-09  5.0000E-09   0.000       0.000       0.000       0.000       0.000    
  10   5.0000E-10  5.2000E-09  2.1000E-09  1.2000E-09  5.8000E-09   0.000       0.000       0.000       0.000       0.000    
  11   1.0000E-10  1.1000E-09  1.1000E-09  1.2000E-09  5.0000E-09   0.000       0.000       0.000       0.000       0.000    
  12   1.1000E-09  1.1000E-09  1.1000E-09  1.1000E-09  2.0000E-09   0.000       0.000       0.000       0.000       0.000    
  13   1.1000E-09  2.2000E-09  2.2000E-09  2.1000E-09  1.0000E-09   0.000       0.000       0.000       0.000       0.000    
  14   2.0000E-10  5.5000E-09  5.5000E-09  5.2000E-09  1.0000E-09   0.000       0.000       0.000       0.000       0.000    
  15    0.000      8.8000E-09  8.8000E-09   0.000       0.000       0.000       0.000       0.000       0.000       0.000    

                  ET RATE =  3.250000E-07

 USING ET EXTINCTION DEPTH FROM PREVIOUS STRESS PERIOD. CURRENT PERIOD IS:       9

 USING EXTINCTION WATER CONTENT FROM PREVIOUS STRESS PERIOD. CURRENT PERIOD IS:       9

 USING AIR ENTRY PRESSURE FROM PREVIOUS STRESS PERIOD. CURRENT PERIOD IS:       9

 USING ROOT PRESSURE HEAD FROM PREVIOUS STRESS PERIOD. CURRENT PERIOD IS:       9

 USING ROOT ACTIVITY FROM PREVIOUS STRESS PERIOD. CURRENT PERIOD IS:       9

 PROCESSING AG STRESS PERIOD DATA

 READING AG STRESS PERIOD DATA

 READING IRRIGATION SEGMENT

 READING IRRIGATION WELL

 READING SUPPLEMENTAL WELL

 END PROCESSING AG STRESS PERIOD DATA OPTIONS
 
 SOLVING FOR HEAD 
                                                   Max.-Head-Change                         Max.-Flux-Residual
  Residual-Control   Outer-Iter.   Inner-Iter.     Column Row Layer    Maximum-Head-Change  Column Row Layer    Maximum-Flux-Residual          L2-NORM 
          0                 1           2             4    7     1      -0.1605678673E-01       4   13    1         0.8642231502E+00      0.2333145745E+01
          0                 2           2             4   13     1      -0.1704989427E-01       4   13    1        -0.1002190384E+01      0.1758351240E+01
          0                 3           2             7   13     1      -0.1911698564E-02       7   13    1        -0.1066706090E+00      0.1662359794E+00
          0                 4           2             7   13     1       0.1301189651E-03       7   13    1         0.7458378551E-02      0.1568414581E-01
          0                 5           1             4    7     1      -0.4941772607E-04       4    7    1        -0.2726795091E-02      0.6680661828E-02

    ------------------------------------------------
       NWT REQUIRED            5 OUTER ITERATIONS 
       AND A TOTAL OF          9 INNER ITERATIONS.
    ------------------------------------------------

 NO OUTPUT CONTROL FOR STRESS PERIOD    9   TIME STEP    1
 
 SOLVING FOR HEAD 
                                                   Max.-Head-Change                         Max.-Flux-Residual
  Residual-Control   Outer-Iter.   Inner-Iter.     Column Row Layer    Maximum-Head-Change  Column Row Layer    Maximum-Flux-Residual          L2-NORM 
          0                 1           2             4    7     1      -0.1716820322E-01       4    7    1        -0.9028247445E+00      0.2433368133E+01
          0                 2           2             4   13     1      -0.1688191789E-01       4   13    1        -0.9923145586E+00      0.1742283477E+01
          0                 3           2             7   13     1      -0.1910196398E-02       7   13    1        -0.1065852588E+00      0.1657129375E+00
          0                 4           2             7   13     1       0.1300183444E-03       7   13    1         0.7452545713E-02      0.1591077481E-01
          0                 5           1             4    7     1      -0.5066535355E-04       4    7    1        -0.2795631932E-02      0.6849196725E-02

    ------------------------------------------------
       NWT REQUIRED            5 OUTER ITERATIONS 
       AND A TOTAL OF          9 INNER ITERATIONS.
    ------------------------------------------------

 NO OUTPUT CONTROL FOR STRESS PERIOD    9   TIME STEP    2
 
 SOLVING FOR HEAD 
                                                   Max.-Head-Change                         Max.-Flux-Residual
  Residual-Control   Outer-Iter.   Inner-Iter.     Column Row Layer    Maximum-Head-Change  Column Row Layer    Maximum-Flux-Residual          L2-NORM 
          0                 1           2             4    7     1      -0.1693716975E-01       4    7    1        -0.8906328292E+00      0.2423617409E+01
          0                 2           2             4   13     1      -0.1689272112E-01       4   13    1        -0.9929454714E+00      0.1743549150E+01
          0                 3           2             7   13     1      -0.1905682832E-02       7   13    1        -0.1063339670E+00      0.1657258159E+00
          0                 4           2             7   13     1       0.1297090597E-03       7   13    1         0.7434838294E-02      0.1619725957E-01
          0                 5           1             4    7     1      -0.5191738726E-04       4    7    1        -0.2864712289E-02      0.7018298232E-02

    ------------------------------------------------
       NWT REQUIRED            5 OUTER ITERATIONS 
       AND A TOTAL OF          9 INNER ITERATIONS.
    ------------------------------------------------

 NO OUTPUT CONTROL FOR STRESS PERIOD    9   TIME STEP    3
 
 SOLVING FOR HEAD 
                                                   Max.-Head-Change                         Max.-Flux-Residual
  Residual-Control   Outer-Iter.   Inner-Iter.     Column Row Layer    Maximum-Head-Change  Column Row Layer    Maximum-Flux-Residual          L2-NORM 
          0                 1           2             4   13     1       0.1501999272E-01       4   13    1         0.8652395219E+00      0.1761418799E+01
          0                 2           2             4   13     1      -0.1690273080E-01       4   13    1        -0.9935298283E+00      0.1915074303E+01
          0                 3           2             4    7     1      -0.1971729510E-02       7   13    1        -0.1060884075E+00      0.2955222790E+00
          0                 4           2             4    7     1      -0.1082348339E-02       5    6    1        -0.5681896275E-01      0.1391495503E+00
          0                 5           2             4    7     1      -0.5315280953E-03       4    7    1        -0.2775342943E-01      0.6793469431E-01
          0                 6           2             4    7     1      -0.2667263724E-03       5    6    1        -0.1392908932E-01      0.3411672185E-01
          0                 7           2             4    7     1      -0.1332692374E-03       4    7    1        -0.6958400784E-02      0.1704368387E-01
          0                 8           1             4    7     1      -0.6663716481E-04       4    7    1        -0.3479328861E-02      0.8522433458E-02

    ------------------------------------------------
       NWT REQUIRED            8 OUTER ITERATIONS 
       AND A TOTAL OF         15 INNER ITERATIONS.
    ------------------------------------------------

 NO OUTPUT CONTROL FOR STRESS PERIOD    9   TIME STEP    4
 
 SOLVING FOR HEAD 
                                                   Max.-Head-Change                         Max.-Flux-Residual
  Residual-Control   Outer-Iter.   Inner-Iter.     Column Row Layer    Maximum-Head-Change  Column Row Layer    Maximum-Flux-Residual          L2-NORM 
          0                 1           2             4   13     1       0.1507301110E-01       4   13    1         0.8682584614E+00      0.1757479068E+01
          0                 2           2             4   13     1      -0.1691203159E-01       4   13    1        -0.9940726260E+00      0.1933367889E+01
          0                 3           2             5    6     1      -0.2049355109E-02       5    8    1        -0.1129896621E+00      0.3073743041E+00
          0                 4           2             4    7     1      -0.1114542467E-02       5    6    1        -0.6089213780E-01      0.1451767975E+00
          0                 5           2             5    6     1      -0.5472901825E-03       5    6    1        -0.3014311912E-01      0.7116630927E-01
          0                 6           2             4    7     1      -0.2742959794E-03       5    6    1        -0.1509165667E-01      0.3570307970E-01
          0                 7           2             4    7     1      -0.1370420677E-03       5    6    1        -0.7544451115E-02      0.1784022303E-01
          0                 8           1             4    7     1      -0.6853619293E-04       5    6    1        -0.3772476158E-02      0.8921723984E-02

    ------------------------------------------------
       NWT REQUIRED            8 OUTER ITERATIONS 
       AND A TOTAL OF         15 INNER ITERATIONS.
    ------------------------------------------------

 NO OUTPUT CONTROL FOR STRESS PERIOD    9   TIME STEP    5
 
 SOLVING FOR HEAD 
                                                   Max.-Head-Change                         Max.-Flux-Residual
  Residual-Control   Outer-Iter.   Inner-Iter.     Column Row Layer    Maximum-Head-Change  Column Row Layer    Maximum-Flux-Residual          L2-NORM 
          0                 1           2             4   13     1       0.1512189114E-01       4   13    1         0.8710386654E+00      0.1755983004E+01
          0                 2           2             4   13     1      -0.1692070549E-01       4   13    1        -0.9945771853E+00      0.1952240505E+01
          0                 3           2             5    6     1      -0.2097202021E-02       5    8    1        -0.1156381576E+00      0.3121234434E+00
          0                 4           2             4    7     1      -0.1146609686E-02       5    6    1        -0.6259282297E-01      0.1492874653E+00
          0                 5           2             5    6     1      -0.5622491171E-03       5    6    1        -0.3096717217E-01      0.7310307217E-01
          0                 6           2             4    7     1      -0.2818364697E-03       5    6    1        -0.1550581276E-01      0.3668388533E-01
          0                 7           2             4    7     1      -0.1407926988E-03       5    6    1        -0.7751024524E-02      0.1832856228E-01
          0                 8           1             4    7     1      -0.7041461165E-04       5    6    1        -0.3875854702E-02      0.9166230995E-02

    ------------------------------------------------
       NWT REQUIRED            8 OUTER ITERATIONS 
       AND A TOTAL OF         15 INNER ITERATIONS.
    ------------------------------------------------

 NO OUTPUT CONTROL FOR STRESS PERIOD    9   TIME STEP    6
 
 SOLVING FOR HEAD 
                                                   Max.-Head-Change                         Max.-Flux-Residual
  Residual-Control   Outer-Iter.   Inner-Iter.     Column Row Layer    Maximum-Head-Change  Column Row Layer    Maximum-Flux-Residual          L2-NORM 
          0                 1           2             4   13     1       0.1516684262E-01       4   13    1         0.8735961475E+00      0.1756897795E+01
          0                 2           2             4   13     1      -0.1692874341E-01       4   13    1        -0.9950474400E+00      0.1971658680E+01
          0                 3           2             5    6     1      -0.2144795749E-02       5    8    1        -0.1182725628E+00      0.3168730123E+00
          0                 4           2             4    7     1      -0.1178564927E-02       5    6    1        -0.6428731893E-01      0.1533839748E+00
          0                 5           2             5    6     1      -0.5771595561E-03       5    6    1        -0.3178855345E-01      0.7503354838E-01
          0                 6           2             4    7     1      -0.2893452504E-03       5    6    1        -0.1591824617E-01      0.3766058158E-01
          0                 7           2             4    7     1      -0.1445350886E-03       5    6    1        -0.7957120912E-02      0.1881580924E-01
          0                 8           1             4    7     1      -0.7229385624E-04       5    6    1        -0.3979266242E-02      0.9410835049E-02

    ------------------------------------------------
       NWT REQUIRED            8 OUTER ITERATIONS 
       AND A TOTAL OF         15 INNER ITERATIONS.
    ------------------------------------------------

 NO OUTPUT CONTROL FOR STRESS PERIOD    9   TIME STEP    7
 
 SOLVING FOR HEAD 
                                                   Max.-Head-Change                         Max.-Flux-Residual
  Residual-Control   Outer-Iter.   Inner-Iter.     Column Row Layer    Maximum-Head-Change  Column Row Layer    Maximum-Flux-Residual          L2-NORM 
          0                 1           2             4   13     1       0.1520825521E-01       4   13    1         0.8759506105E+00      0.1760205471E+01
          0                 2           2             4   13     1      -0.1693628895E-01       4   13    1        -0.9954836385E+00      0.1991634267E+01
          0                 3           2             5    6     1      -0.2192136862E-02       5    8    1        -0.1208930454E+00      0.3216334300E+00
          0                 4           2             4    7     1      -0.1210385048E-02       5    6    1        -0.6597443125E-01      0.1574635332E+00
          0                 5           2             5    6     1      -0.5920208526E-03       5    6    1        -0.3260722621E-01      0.7695771041E-01
          0                 6           2             4    7     1      -0.2968109039E-03       5    6    1        -0.1632836340E-01      0.3863171100E-01
          0                 7           2             4    7     1      -0.1482703788E-03       5    6    1        -0.8162781300E-02      0.1930209467E-01
          0                 8           1             4    7     1      -0.7414641449E-04       5    6    1        -0.4081277438E-02      0.9652021445E-02

    ------------------------------------------------
       NWT REQUIRED            8 OUTER ITERATIONS 
       AND A TOTAL OF         15 INNER ITERATIONS.
    ------------------------------------------------

 NO OUTPUT CONTROL FOR STRESS PERIOD    9   TIME STEP    8
 
 SOLVING FOR HEAD 
                                                   Max.-Head-Change                         Max.-Flux-Residual
  Residual-Control   Outer-Iter.   Inner-Iter.     Column Row Layer    Maximum-Head-Change  Column Row Layer    Maximum-Flux-Residual          L2-NORM 
          0                 1           2             4   13     1       0.1524670198E-01       4   13    1         0.8781353484E+00      0.1765863488E+01
          0                 2           2             4   13     1      -0.1694338348E-01       4   13    1        -0.9958972859E+00      0.2012152392E+01
          0                 3           2             4    6     1      -0.2275382699E-02       4    6    1        -0.1239917630E+00      0.3307591671E+00
          0                 4           2             4    7     1      -0.1242121476E-02       5    8    1        -0.6765046154E-01      0.1625519486E+00
          0                 5           2             4    6     1      -0.6130044447E-03       5    8    1        -0.3342093824E-01      0.7960006151E-01
          0                 6           2             4    6     1      -0.3070009145E-03       5    8    1        -0.1673741663E-01      0.3993910724E-01
          0                 7           2             4    6     1      -0.1534662888E-03       5    8    1        -0.8366855394E-02      0.1995676359E-01
          0                 8           1             4    6     1      -0.7673275216E-04       5    8    1        -0.4183343415E-02      0.9979186844E-02

    ------------------------------------------------
       NWT REQUIRED            8 OUTER ITERATIONS 
       AND A TOTAL OF         15 INNER ITERATIONS.
    ------------------------------------------------

 NO OUTPUT CONTROL FOR STRESS PERIOD    9   TIME STEP    9
 
 SOLVING FOR HEAD 
                                                   Max.-Head-Change                         Max.-Flux-Residual
  Residual-Control   Outer-Iter.   Inner-Iter.     Column Row Layer    Maximum-Head-Change  Column Row Layer    Maximum-Flux-Residual          L2-NORM 
          0                 1           2             4   13     1       0.1528206497E-01       4   13    1         0.8801431945E+00      0.1773822818E+01
          0                 2           2             4   13     1      -0.1694986841E-01       4   13    1        -0.9962750745E+00      0.2033191457E+01
          0                 3           2             5    7     1      -0.2335007831E-02       4    8    1        -0.1268302519E+00      0.3446176402E+00
          0                 4           2             5    7     1      -0.1275700306E-02       5    6    1        -0.6924979462E-01      0.1686719764E+00
          0                 5           2             5    7     1      -0.6302571247E-03       5    7    1        -0.3420850849E-01      0.8299735237E-01
          0                 6           2             5    7     1      -0.3156693819E-03       5    7    1        -0.1713239005E-01      0.4159528282E-01
          0                 7           2             5    7     1      -0.1577953411E-03       5    7    1        -0.8564095411E-02      0.2078947082E-01
          0                 8           1             5    7     1      -0.7889541112E-04       5    7    1        -0.4281864940E-02      0.1039465318E-01

    ------------------------------------------------
       NWT REQUIRED            8 OUTER ITERATIONS 
       AND A TOTAL OF         15 INNER ITERATIONS.
    ------------------------------------------------

 NO OUTPUT CONTROL FOR STRESS PERIOD    9   TIME STEP   10
 
 SOLVING FOR HEAD 
                                                   Max.-Head-Change                         Max.-Flux-Residual
  Residual-Control   Outer-Iter.   Inner-Iter.     Column Row Layer    Maximum-Head-Change  Column Row Layer    Maximum-Flux-Residual          L2-NORM 
          0                 1           2             4   13     1       0.1531481392E-01       4   13    1         0.8820014881E+00      0.1784031874E+01
          0                 2           2             4   13     1      -0.1695601248E-01       4   13    1        -0.9966330595E+00      0.2054743677E+01
          0                 3           2             5    7     1      -0.2381926606E-02       4    8    1        -0.1293840665E+00      0.3499400448E+00
          0                 4           2             5    7     1      -0.1306498952E-02       5    6    1        -0.7091881459E-01      0.1727458402E+00
          0                 5           2             5    7     1      -0.6451479684E-03       5    7    1        -0.3501680326E-01      0.8495651687E-01
          0                 6           2             5    7     1      -0.3231382480E-03       5    7    1        -0.1753773485E-01      0.4257961914E-01
          0                 7           2             5    7     1      -0.1615280979E-03       5    7    1        -0.8766682633E-02      0.2128123085E-01
          0                 8           1             5    7     1      -0.8077727961E-04       5    7    1        -0.4383996609E-02      0.1064260550E-01

    ------------------------------------------------
       NWT REQUIRED            8 OUTER ITERATIONS 
       AND A TOTAL OF         15 INNER ITERATIONS.
    ------------------------------------------------

 NO OUTPUT CONTROL FOR STRESS PERIOD    9   TIME STEP   11
 
 SOLVING FOR HEAD 
                                                   Max.-Head-Change                         Max.-Flux-Residual
  Residual-Control   Outer-Iter.   Inner-Iter.     Column Row Layer    Maximum-Head-Change  Column Row Layer    Maximum-Flux-Residual          L2-NORM 
          0                 1           2             4   13     1       0.1534515799E-01       4   13    1         0.8837221243E+00      0.1796426006E+01
          0                 2           2             4   13     1      -0.1696174865E-01       4   13    1        -0.9969670316E+00      0.2076795528E+01
          0                 3           2             5    7     1      -0.2428614416E-02       4    8    1        -0.1319253077E+00      0.3552570761E+00
          0                 4           2             5    7     1      -0.1337179698E-02       5    6    1        -0.7258146419E-01      0.1768042828E+00
          0                 5           2             5    7     1      -0.6599767339E-03       5    7    1        -0.3582172852E-01      0.8690749758E-01
          0                 6           2             5    7     1      -0.3305872860E-03       5    7    1        -0.1794200274E-01      0.4356135501E-01
          0                 7           2             5    7     1      -0.1652512543E-03       5    7    1        -0.8968748734E-02      0.2177172835E-01
          0                 8           1             5    7     1      -0.8262684786E-04       5    7    1        -0.4484376424E-02      0.1088627967E-01

    ------------------------------------------------
       NWT REQUIRED            8 OUTER ITERATIONS 
       AND A TOTAL OF         15 INNER ITERATIONS.
    ------------------------------------------------

 NO OUTPUT CONTROL FOR STRESS PERIOD    9   TIME STEP   12
 
 SOLVING FOR HEAD 
                                                   Max.-Head-Change                         Max.-Flux-Residual
  Residual-Control   Outer-Iter.   Inner-Iter.     Column Row Layer    Maximum-Head-Change  Column Row Layer    Maximum-Flux-Residual          L2-NORM 
          0                 1           2             4   13     1       0.1537325394E-01       4   13    1         0.8853141514E+00      0.1810947149E+01
          0                 2           2             4   13     1      -0.1696713235E-01       4   13    1        -0.9972804123E+00      0.2099332141E+01
          0                 3           2             5    7     1      -0.2475064755E-02       4    8    1        -0.1344534517E+00      0.3605694596E+00
          0                 4           2             4    7     1      -0.1367936495E-02       5    6    1        -0.7423837083E-01      0.1808491907E+00
          0                 5           2             5    7     1      -0.6747514129E-03       5    7    1        -0.3662371805E-01      0.8885134587E-01
          0                 6           2             5    7     1      -0.3380181347E-03       5    7    1        -0.1834528278E-01      0.4454070315E-01
          0                 7           2             5    7     1      -0.1689515061E-03       5    7    1        -0.9169572274E-02      0.2225918858E-01
          0                 8           1             5    7     1      -0.8447802241E-04       5    7    1        -0.4584842705E-02      0.1113017315E-01

    ------------------------------------------------
       NWT REQUIRED            8 OUTER ITERATIONS 
       AND A TOTAL OF         15 INNER ITERATIONS.
    ------------------------------------------------

 NO OUTPUT CONTROL FOR STRESS PERIOD    9   TIME STEP   13
 
 SOLVING FOR HEAD 
                                                   Max.-Head-Change                         Max.-Flux-Residual
  Residual-Control   Outer-Iter.   Inner-Iter.     Column Row Layer    Maximum-Head-Change  Column Row Layer    Maximum-Flux-Residual          L2-NORM 
          0                 1           2             4   13     1       0.1539928114E-01       4   13    1         0.8867879794E+00      0.1827513578E+01
          0                 2           2             4   13     1      -0.1697219240E-01       4   13    1        -0.9975749049E+00      0.2122339905E+01
          0                 3           2             5    7     1      -0.2521269469E-02       4    8    1        -0.1369681533E+00      0.3658731413E+00
          0                 4           2             4    7     1      -0.1399126746E-02       5    6    1        -0.7588968325E-01      0.1848807081E+00
          0                 5           2             5    7     1      -0.6894652181E-03       5    7    1        -0.3742240375E-01      0.9078715885E-01
          0                 6           2             5    7     1      -0.3454070875E-03       5    7    1        -0.1874628917E-01      0.4551452040E-01
          0                 7           2             5    7     1      -0.1726415057E-03       5    7    1        -0.9369838721E-02      0.2274531196E-01
          0                 8           1             5    7     1      -0.8632991542E-04       5    7    1        -0.4685347717E-02      0.1137417003E-01

    ------------------------------------------------
       NWT REQUIRED            8 OUTER ITERATIONS 
       AND A TOTAL OF         15 INNER ITERATIONS.
    ------------------------------------------------

 NO OUTPUT CONTROL FOR STRESS PERIOD    9   TIME STEP   14
 
 SOLVING FOR HEAD 
                                                   Max.-Head-Change                         Max.-Flux-Residual
  Residual-Control   Outer-Iter.   Inner-Iter.     Column Row Layer    Maximum-Head-Change  Column Row Layer    Maximum-Flux-Residual          L2-NORM 
          0                 1           2             4   13     1       0.1542352492E-01       4   13    1         0.8881599102E+00      0.1846056391E+01
          0                 2           2             4   13     1      -0.1697696940E-01       4   13    1        -0.9978528601E+00      0.2145808289E+01
          0                 3           2             4    7     1      -0.2610883821E-02       4    7    1        -0.1401766573E+00      0.3763645466E+00
          0                 4           2             4    7     1      -0.1442133078E-02       5    6    1        -0.7753428875E-01      0.1899907232E+00
          0                 5           2             4    7     1      -0.7115009774E-03       4    7    1        -0.3819023631E-01      0.9353264033E-01
          0                 6           2             4    7     1      -0.3564114056E-03       5    6    1        -0.1913054723E-01      0.4685987091E-01
          0                 7           2             4    7     1      -0.1781577526E-03       4    7    1        -0.9562495797E-02      0.2342290012E-01
          0                 8           1             4    7     1      -0.8908140336E-04       4    7    1        -0.4781338207E-02      0.1171170837E-01

    ------------------------------------------------
       NWT REQUIRED            8 OUTER ITERATIONS 
       AND A TOTAL OF         15 INNER ITERATIONS.
    ------------------------------------------------

 NO OUTPUT CONTROL FOR STRESS PERIOD    9   TIME STEP   15
 
 SOLVING FOR HEAD 
                                                   Max.-Head-Change                         Max.-Flux-Residual
  Residual-Control   Outer-Iter.   Inner-Iter.     Column Row Layer    Maximum-Head-Change  Column Row Layer    Maximum-Flux-Residual          L2-NORM 
          0                 1           2             4   13     1       0.1544602200E-01       4   13    1         0.8894322149E+00      0.1866492835E+01
          0                 2           2             4   13     1      -0.1698145445E-01       4   13    1        -0.9981137426E+00      0.2169720820E+01
          0                 3           2             4    7     1      -0.2656835579E-02       4    7    1        -0.1426423440E+00      0.3818387723E+00
          0                 4           2             4    7     1      -0.1472723303E-02       5    6    1        -0.7917421065E-01      0.1940050673E+00
          0                 5           2             4    7     1      -0.7262495310E-03       4    7    1        -0.3898184998E-01      0.9547186842E-01
          0                 6           2             4    7     1      -0.3638360999E-03       5    6    1        -0.1952904058E-01      0.4783599424E-01
          0                 7           2             4    7     1      -0.1818554290E-03       4    7    1        -0.9760962020E-02      0.2390903651E-01
          0                 8           1             4    7     1      -0.9093014146E-04       4    7    1        -0.4880565031E-02      0.1195476059E-01

    ------------------------------------------------
       NWT REQUIRED            8 OUTER ITERATIONS 
       AND A TOTAL OF         15 INNER ITERATIONS.
    ------------------------------------------------

 NO OUTPUT CONTROL FOR STRESS PERIOD    9   TIME STEP   16
 
 SOLVING FOR HEAD 
                                                   Max.-Head-Change                         Max.-Flux-Residual
  Residual-Control   Outer-Iter.   Inner-Iter.     Column Row Layer    Maximum-Head-Change  Column Row Layer    Maximum-Flux-Residual          L2-NORM 
          0                 1           2             4   13     1       0.1546703532E-01       4   13    1         0.8906198692E+00      0.1888742624E+01
          0                 2           2             4   13     1      -0.1698572266E-01       4   13    1        -0.9983619790E+00      0.2194068939E+01
          0                 3           2             4    7     1      -0.2702548712E-02       4    7    1        -0.1450952317E+00      0.3873026577E+00
          0                 4           2             4    7     1      -0.1503185895E-02       5    6    1        -0.8080731231E-01      0.1980028236E+00
          0                 5           2             4    7     1      -0.7409626136E-03       4    7    1        -0.3977155928E-01      0.9740642818E-01
          0                 6           2             4    7     1      -0.3712144220E-03       5    6    1        -0.1992504484E-01      0.4880602056E-01
          0                 7           2             4    7     1      -0.1855563562E-03       4    7    1        -0.9959602623E-02      0.2439559998E-01
          0                 8           1             4    7     1      -0.9276754867E-04       4    7    1        -0.4979183606E-02      0.1219632291E-01

    ------------------------------------------------
       NWT REQUIRED            8 OUTER ITERATIONS 
       AND A TOTAL OF         15 INNER ITERATIONS.
    ------------------------------------------------

 NO OUTPUT CONTROL FOR STRESS PERIOD    9   TIME STEP   17
 
 SOLVING FOR HEAD 
                                                   Max.-Head-Change                         Max.-Flux-Residual
  Residual-Control   Outer-Iter.   Inner-Iter.     Column Row Layer    Maximum-Head-Change  Column Row Layer    Maximum-Flux-Residual          L2-NORM 
          0                 1           2             4   13     1       0.1548654174E-01       4   13    1         0.8917215116E+00      0.1903117594E+01
          0                 2           2             4   13     1      -0.1698970065E-01       4   13    1        -0.9985932264E+00      0.2204710523E+01
          0                 3           2             4    7     1      -0.2723762075E-02       4    7    1        -0.1462330753E+00      0.3898432965E+00
          0                 4           2             4    7     1      -0.1517158950E-02       5    6    1        -0.8155536878E-01      0.1998349467E+00
          0                 5           2             4    7     1      -0.7477777983E-03       4    7    1        -0.4013734657E-01      0.9830261356E-01
          0                 6           2             4    7     1      -0.3746484159E-03       5    6    1        -0.2010934253E-01      0.4925746879E-01
          0                 7           2             4    7     1      -0.1872681575E-03       4    7    1        -0.1005147825E-01      0.2462064712E-01
          0                 8           1             4    7     1      -0.9363157798E-04       4    7    1        -0.5025557309E-02      0.1230991408E-01

    ------------------------------------------------
       NWT REQUIRED            8 OUTER ITERATIONS 
       AND A TOTAL OF         15 INNER ITERATIONS.
    ------------------------------------------------

 NO OUTPUT CONTROL FOR STRESS PERIOD    9   TIME STEP   18
 
 SOLVING FOR HEAD 
                                                   Max.-Head-Change                         Max.-Flux-Residual
  Residual-Control   Outer-Iter.   Inner-Iter.     Column Row Layer    Maximum-Head-Change  Column Row Layer    Maximum-Flux-Residual          L2-NORM 
          0                 1           2             4   13     1       0.1550473726E-01       4   13    1         0.8927484895E+00      0.1910891766E+01
          0                 2           2             4   13     1      -0.1699351748E-01       4   13    1        -0.9988151188E+00      0.2205520827E+01
          0                 3           2             4    7     1      -0.2727258564E-02       4    7    1        -0.1464199600E+00      0.3902613384E+00
          0                 4           2             4    7     1      -0.1518962515E-02       5    6    1        -0.8165027456E-01      0.2000686150E+00
          0                 5           2             4    7     1      -0.7486712581E-03       4    7    1        -0.4018528394E-01      0.9842023401E-01
          0                 6           2             4    7     1      -0.3750946140E-03       5    6    1        -0.2013327448E-01      0.4931609924E-01
          0                 7           2             4    7     1      -0.1874857386E-03       4    7    1        -0.1006315275E-01      0.2464924409E-01
          0                 8           1             4    7     1      -0.9375852230E-04       4    7    1        -0.5032368894E-02      0.1232659815E-01

    ------------------------------------------------
       NWT REQUIRED            8 OUTER ITERATIONS 
       AND A TOTAL OF         15 INNER ITERATIONS.
    ------------------------------------------------

 NO OUTPUT CONTROL FOR STRESS PERIOD    9   TIME STEP   19
 
 SOLVING FOR HEAD 
                                                   Max.-Head-Change                         Max.-Flux-Residual
  Residual-Control   Outer-Iter.   Inner-Iter.     Column Row Layer    Maximum-Head-Change  Column Row Layer    Maximum-Flux-Residual          L2-NORM 
          0                 1           2             4   13     1       0.1552169215E-01       4   13    1         0.8937047002E+00      0.1918487878E+01
          0                 2           2             4   13     1      -0.1699711549E-01       4   13    1        -0.9990242197E+00      0.2206294793E+01
          0                 3           2             4    7     1      -0.2730757573E-02       4    7    1        -0.1466069881E+00      0.3906795831E+00
          0                 4           2             4    7     1      -0.1520768120E-02       5    6    1        -0.8174532117E-01      0.2003025114E+00
          0                 5           2             4    7     1      -0.7495734559E-03       4    7    1        -0.4023369047E-01      0.9853900102E-01
          0                 6           2             4    7     1      -0.3755424198E-03       5    6    1        -0.2015729290E-01      0.4937494133E-01
          0                 7           2             4    7     1      -0.1877143123E-03       4    7    1        -0.1007541729E-01      0.2467928649E-01
          0                 8           1             4    7     1      -0.9386248612E-04       4    7    1        -0.5037947049E-02      0.1234026152E-01

    ------------------------------------------------
       NWT REQUIRED            8 OUTER ITERATIONS 
       AND A TOTAL OF         15 INNER ITERATIONS.
    ------------------------------------------------

 NO OUTPUT CONTROL FOR STRESS PERIOD    9   TIME STEP   20
 
 SOLVING FOR HEAD 
                                                   Max.-Head-Change                         Max.-Flux-Residual
  Residual-Control   Outer-Iter.   Inner-Iter.     Column Row Layer    Maximum-Head-Change  Column Row Layer    Maximum-Flux-Residual          L2-NORM 
          0                 1           2             4   13     1       0.1553749944E-01       4   13    1         0.8945956716E+00      0.1925926318E+01
          0                 2           2             4   13     1      -0.1700050688E-01       4   13    1        -0.9992212484E+00      0.2207033935E+01
          0                 3           2             4    7     1      -0.2734269322E-02       4    7    1        -0.1467947149E+00      0.3910992303E+00
          0                 4           2             4    7     1      -0.1522559503E-02       5    6    1        -0.8183963491E-01      0.2005346452E+00
          0                 5           2             4    7     1      -0.7504677628E-03       4    7    1        -0.4028167362E-01      0.9865672807E-01
          0                 6           2             4    7     1      -0.3759996605E-03       5    6    1        -0.2018181797E-01      0.4943502428E-01
          0                 7           2             4    7     1      -0.1879333399E-03       4    7    1        -0.1008716950E-01      0.2470807407E-01
          0                 8           1             4    7     1      -0.9397600252E-04       4    7    1        -0.5044037944E-02      0.1235518091E-01

    ------------------------------------------------
       NWT REQUIRED            8 OUTER ITERATIONS 
       AND A TOTAL OF         15 INNER ITERATIONS.
    ------------------------------------------------

 NO OUTPUT CONTROL FOR STRESS PERIOD    9   TIME STEP   21
 
 SOLVING FOR HEAD 
                                                   Max.-Head-Change                         Max.-Flux-Residual
  Residual-Control   Outer-Iter.   Inner-Iter.     Column Row Layer    Maximum-Head-Change  Column Row Layer    Maximum-Flux-Residual          L2-NORM 
          0                 1           2             4   13     1       0.1555237664E-01       4   13    1         0.8954337574E+00      0.1933214814E+01
          0                 2           2             4   13     1      -0.1700374747E-01       4   13    1        -0.9994095256E+00      0.2207738586E+01
          0                 3           2             4    7     1      -0.2737776641E-02       4    7    1        -0.1469822204E+00      0.3915179291E+00
          0                 4           2             4    7     1      -0.1524364514E-02       5    6    1        -0.8193471666E-01      0.2007686234E+00
          0                 5           2             4    7     1      -0.7513611131E-03       4    7    1        -0.4032960567E-01      0.9877432614E-01
          0                 6           2             4    7     1      -0.3764347574E-03       5    6    1        -0.2020515473E-01      0.4949219630E-01
          0                 7           2             4    7     1      -0.1881628019E-03       4    7    1        -0.1009948179E-01      0.2473823361E-01
          0                 8           1             4    7     1      -0.9408878780E-04       4    7    1        -0.5050089595E-02      0.1237000463E-01

    ------------------------------------------------
       NWT REQUIRED            8 OUTER ITERATIONS 
       AND A TOTAL OF         15 INNER ITERATIONS.
    ------------------------------------------------

 NO OUTPUT CONTROL FOR STRESS PERIOD    9   TIME STEP   22
 
 SOLVING FOR HEAD 
                                                   Max.-Head-Change                         Max.-Flux-Residual
  Residual-Control   Outer-Iter.   Inner-Iter.     Column Row Layer    Maximum-Head-Change  Column Row Layer    Maximum-Flux-Residual          L2-NORM 
          0                 1           2             4   13     1       0.1556626072E-01       4   13    1         0.8962154086E+00      0.1940344858E+01
          0                 2           2             4   13     1      -0.1700683022E-01       4   13    1        -0.9995885812E+00      0.2208410794E+01
          0                 3           2             4    7     1      -0.2741298635E-02       4    7    1        -0.1471705297E+00      0.3919392133E+00
          0                 4           2             4    7     1      -0.1526155167E-02       5    6    1        -0.8202905619E-01      0.2010008050E+00
          0                 5           2             4    7     1      -0.7522554661E-03       4    7    1        -0.4037759170E-01      0.9889205264E-01
          0                 6           2             4    7     1      -0.3768808866E-03       5    6    1        -0.2022908388E-01      0.4955081932E-01
          0                 7           2             4    7     1      -0.1883937120E-03       4    7    1        -0.1011187183E-01      0.2476858334E-01
          0                 8           1             4    7     1      -0.9419258666E-04       4    7    1        -0.5055658934E-02      0.1238364596E-01

    ------------------------------------------------
       NWT REQUIRED            8 OUTER ITERATIONS 
       AND A TOTAL OF         15 INNER ITERATIONS.
    ------------------------------------------------

 NO OUTPUT CONTROL FOR STRESS PERIOD    9   TIME STEP   23
 
 SOLVING FOR HEAD 
                                                   Max.-Head-Change                         Max.-Flux-Residual
  Residual-Control   Outer-Iter.   Inner-Iter.     Column Row Layer    Maximum-Head-Change  Column Row Layer    Maximum-Flux-Residual          L2-NORM 
          0                 1           2             4   13     1       0.1557928048E-01       4   13    1         0.8969480763E+00      0.1947333210E+01
          0                 2           2             4   13     1      -0.1700977929E-01       4   13    1        -0.9997598923E+00      0.2209054495E+01
          0                 3           2             4    7     1      -0.2744824966E-02       4    7    1        -0.1473590823E+00      0.3923609807E+00
          0                 4           2             4    7     1      -0.1527945513E-02       5    6    1        -0.8212340862E-01      0.2012329364E+00
          0                 5           2             4    7     1      -0.7531498375E-03       4    7    1        -0.4042557889E-01      0.9900977884E-01
          0                 6           2             4    7     1      -0.3773270146E-03       5    6    1        -0.2025301312E-01      0.4960944233E-01
          0                 7           2             4    7     1      -0.1886112946E-03       4    7    1        -0.1012354657E-01      0.2479718115E-01
          0                 8           1             4    7     1      -0.9430620330E-04       4    7    1        -0.5061755258E-02      0.1239857856E-01

    ------------------------------------------------
       NWT REQUIRED            8 OUTER ITERATIONS 
       AND A TOTAL OF         15 INNER ITERATIONS.
    ------------------------------------------------

 NO OUTPUT CONTROL FOR STRESS PERIOD    9   TIME STEP   24
 
 SOLVING FOR HEAD 
                                                   Max.-Head-Change                         Max.-Flux-Residual
  Residual-Control   Outer-Iter.   Inner-Iter.     Column Row Layer    Maximum-Head-Change  Column Row Layer    Maximum-Flux-Residual          L2-NORM 
          0                 1           2             4   13     1       0.1559145077E-01       4   13    1         0.8976322800E+00      0.1954185257E+01
          0                 2           2             4   13     1      -0.1701257507E-01       4   13    1        -0.9999222236E+00      0.2209666481E+01
          0                 3           2             4    7     1      -0.2748366308E-02       4    7    1        -0.1475484557E+00      0.3927837698E+00
          0                 4           2             4    7     1      -0.1529723696E-02       5    6    1        -0.8221715137E-01      0.2014635882E+00
          0                 5           2             4    7     1      -0.7540317322E-03       4    7    1        -0.4047289661E-01      0.9912586258E-01
          0                 6           2             4    7     1      -0.3777762352E-03       5    6    1        -0.2027710866E-01      0.4966847252E-01
          0                 7           2             4    7     1      -0.1888264395E-03       4    7    1        -0.1013509050E-01      0.2482545846E-01
          0                 8           1             4    7     1      -0.9442443225E-04       4    7    1        -0.5068099156E-02      0.1241411777E-01

    ------------------------------------------------
       NWT REQUIRED            8 OUTER ITERATIONS 
       AND A TOTAL OF         15 INNER ITERATIONS.
    ------------------------------------------------

 NO OUTPUT CONTROL FOR STRESS PERIOD    9   TIME STEP   25
 
 SOLVING FOR HEAD 
                                                   Max.-Head-Change                         Max.-Flux-Residual
  Residual-Control   Outer-Iter.   Inner-Iter.     Column Row Layer    Maximum-Head-Change  Column Row Layer    Maximum-Flux-Residual          L2-NORM 
          0                 1           2             4   13     1       0.1560297541E-01       4   13    1         0.8982800885E+00      0.1960911827E+01
          0                 2           2             4   13     1      -0.1701525902E-01       4   13    1        -0.1000078103E+01      0.2210251317E+01
          0                 3           2             4    7     1      -0.2751898750E-02       4    7    1        -0.1477373652E+00      0.3932051563E+00
          0                 4           2             4    7     1      -0.1531502498E-02       5    6    1        -0.8231095494E-01      0.2016942895E+00
          0                 5           2             4    7     1      -0.7549269072E-03       4    7    1        -0.4052092730E-01      0.9924368806E-01
          0                 6           2             4    7     1      -0.3782111989E-03       5    6    1        -0.2030043915E-01      0.4972562853E-01
          0                 7           2             4    7     1      -0.1890559083E-03       4    7    1        -0.1014740328E-01      0.2485561916E-01
          0                 8           1             4    7     1      -0.9452611048E-04       4    7    1        -0.5073554715E-02      0.1242748100E-01

    ------------------------------------------------
       NWT REQUIRED            8 OUTER ITERATIONS 
       AND A TOTAL OF         15 INNER ITERATIONS.
    ------------------------------------------------

 NO OUTPUT CONTROL FOR STRESS PERIOD    9   TIME STEP   26
 
 SOLVING FOR HEAD 
                                                   Max.-Head-Change                         Max.-Flux-Residual
  Residual-Control   Outer-Iter.   Inner-Iter.     Column Row Layer    Maximum-Head-Change  Column Row Layer    Maximum-Flux-Residual          L2-NORM 
          0                 1           2             4   13     1       0.1561369236E-01       4   13    1         0.8988819425E+00      0.1967507665E+01
          0                 2           2             4   13     1      -0.1701781887E-01       4   13    1        -0.1000226713E+01      0.2210811722E+01
          0                 3           2             4    7     1      -0.2755431683E-02       4    7    1        -0.1479263133E+00      0.3936287369E+00
          0                 4           2             4    7     1      -0.1533270157E-02       5    6    1        -0.8240417849E-01      0.2019237258E+00
          0                 5           2             4    7     1      -0.7558095339E-03       4    7    1        -0.4056828462E-01      0.9935986227E-01
          0                 6           2             4    7     1      -0.3786581444E-03       5    6    1        -0.2032441292E-01      0.4978436030E-01
          0                 7           2             4    7     1      -0.1892756536E-03       4    7    1        -0.1015919419E-01      0.2488450123E-01
          0                 8           1             4    7     1      -0.9463957408E-04       4    7    1        -0.5079642878E-02      0.1244239342E-01

    ------------------------------------------------
       NWT REQUIRED            8 OUTER ITERATIONS 
       AND A TOTAL OF         15 INNER ITERATIONS.
    ------------------------------------------------

 NO OUTPUT CONTROL FOR STRESS PERIOD    9   TIME STEP   27
 
 SOLVING FOR HEAD 
                                                   Max.-Head-Change                         Max.-Flux-Residual
  Residual-Control   Outer-Iter.   Inner-Iter.     Column Row Layer    Maximum-Head-Change  Column Row Layer    Maximum-Flux-Residual          L2-NORM 
          0                 1           2             4   13     1       0.1562386368E-01       4   13    1         0.8994530555E+00      0.1973989130E+01
          0                 2           2             4   13     1      -0.1702027714E-01       4   13    1        -0.1000369454E+01      0.2211345446E+01
          0                 3           2             4    7     1      -0.2758982843E-02       4    7    1        -0.1481162591E+00      0.3940529540E+00
          0                 4           2             4    7     1      -0.1535036532E-02       5    6    1        -0.8249738284E-01      0.2021529643E+00
          0                 5           2             4    7     1      -0.7566922478E-03       4    7    1        -0.4061564686E-01      0.9947604328E-01
          0                 6           2             4    7     1      -0.3791050829E-03       5    6    1        -0.2034838661E-01      0.4984309155E-01
          0                 7           2             4    7     1      -0.1895042823E-03       4    7    1        -0.1017146195E-01      0.2491455147E-01
          0                 8           1             4    7     1      -0.9475463717E-04       4    7    1        -0.5085816869E-02      0.1245751630E-01

    ------------------------------------------------
       NWT REQUIRED            8 OUTER ITERATIONS 
       AND A TOTAL OF         15 INNER ITERATIONS.
    ------------------------------------------------

 NO OUTPUT CONTROL FOR STRESS PERIOD    9   TIME STEP   28
 
 SOLVING FOR HEAD 
                                                   Max.-Head-Change                         Max.-Flux-Residual
  Residual-Control   Outer-Iter.   Inner-Iter.     Column Row Layer    Maximum-Head-Change  Column Row Layer    Maximum-Flux-Residual          L2-NORM 
          0                 1           2             4   13     1       0.1563343126E-01       4   13    1         0.8999898899E+00      0.1980342490E+01
          0                 2           2             4   13     1      -0.1702264659E-01       4   13    1        -0.1000507026E+01      0.2211855544E+01
          0                 3           2             4    7     1      -0.2762546091E-02       4    7    1        -0.1483068616E+00      0.3944794974E+00
          0                 4           2             4    7     1      -0.1536788733E-02       5    6    1        -0.8258984416E-01      0.2023804330E+00
          0                 5           2             4    7     1      -0.7575759521E-03       4    7    1        -0.4066306239E-01      0.9959235407E-01
          0                 6           2             4    7     1      -0.3795541721E-03       5    6    1        -0.2037247588E-01      0.4990210584E-01
          0                 7           2             4    7     1      -0.1897105496E-03       4    7    1        -0.1018252951E-01      0.2494166193E-01
          0                 8           1             4    7     1      -0.9485793969E-04       4    7    1        -0.5091359673E-02      0.1247109325E-01

    ------------------------------------------------
       NWT REQUIRED            8 OUTER ITERATIONS 
       AND A TOTAL OF         15 INNER ITERATIONS.
    ------------------------------------------------

 NO OUTPUT CONTROL FOR STRESS PERIOD    9   TIME STEP   29
 
 SOLVING FOR HEAD 
                                                   Max.-Head-Change                         Max.-Flux-Residual
  Residual-Control   Outer-Iter.   Inner-Iter.     Column Row Layer    Maximum-Head-Change  Column Row Layer    Maximum-Flux-Residual          L2-NORM 
          0                 1           2             4   13     1       0.1564231508E-01       4   13    1         0.9004879470E+00      0.1986590763E+01
          0                 2           2             4   13     1      -0.1702487591E-01       4   13    1        -0.1000636409E+01      0.2212342381E+01
          0                 3           2             4    7     1      -0.2766097725E-02       4    7    1        -0.1484968527E+00      0.3949044365E+00
          0                 4           2             4    7     1      -0.1538555067E-02       5    6    1        -0.8268308907E-01      0.2026097653E+00
          0                 5           2             4    7     1      -0.7584586643E-03       4    7    1        -0.4071042481E-01      0.9970853107E-01
          0                 6           2             4    7     1      -0.3799900034E-03       5    6    1        -0.2039585374E-01      0.4995937737E-01
          0                 7           2             4    7     1      -0.1899288502E-03       4    7    1        -0.1019424296E-01      0.2497035452E-01
          0                 8           1             4    7     1      -0.9497372490E-04       4    7    1        -0.5097572473E-02      0.1248631140E-01

    ------------------------------------------------
       NWT REQUIRED            8 OUTER ITERATIONS 
       AND A TOTAL OF         15 INNER ITERATIONS.
    ------------------------------------------------

 NO OUTPUT CONTROL FOR STRESS PERIOD    9   TIME STEP   30



 STREAM LISTING     PERIOD      9   STEP       30

 LAYER ROW COL. STREAM  RCH.  FLOW INTO     FLOW TO   FLOW OUT OF   OVRLND.     DIRECT     STREAM       STREAM     STREAM     STREAM   STREAMBED  STREAMBED
                SEG.NO.  NO.  STRM. RCH.    AQUIFER    STRM. RCH.    RUNOFF     PRECIP       ET          HEAD       DEPTH      WIDTH   CONDCTNC.   GRADIENT

   1    1    1     1     1    4.5750E+01  3.2289E-01   4.5427E+01  0.000E+00  0.000E+00  0.000E+00  1.09442E+03  1.372E+00  1.641E+01  7.386E-02  1.457E+00
   1    2    2     1     2    4.5427E+01  5.0023E-01   4.4927E+01  0.000E+00  0.000E+00  0.000E+00  1.08943E+03  1.369E+00  1.636E+01  1.145E-01  1.456E+00
   1    3    3     1     3    4.4927E+01  4.2678E-01   4.4500E+01  0.000E+00  0.000E+00  0.000E+00  1.08378E+03  1.366E+00  1.629E+01  9.776E-02  1.455E+00
   1    3    4     1     4    4.4500E+01  3.9314E-01   4.4107E+01  0.000E+00  0.000E+00  0.000E+00  1.07877E+03  1.363E+00  1.624E+01  9.011E-02  1.454E+00
   1    4    5     2     1    4.2107E+01  3.6245E-01   4.1744E+01  0.000E+00  0.000E+00  0.000E+00  1.07358E+03  1.647E+00  1.200E+01  7.800E-02  1.549E+00
   1    5    6     2     2    4.1744E+01  2.7835E-01   4.1466E+01  0.000E+00  0.000E+00  0.000E+00  1.06815E+03  1.639E+00  1.200E+01  6.000E-02  1.546E+00
   1    6    6     2     3    4.1466E+01  2.7796E-01   4.1188E+01  0.000E+00  0.000E+00  0.000E+00  1.06343E+03  1.633E+00  1.200E+01  6.000E-02  1.544E+00
   1    7    6     2     4    4.1188E+01  2.7756E-01   4.0910E+01  0.000E+00  0.000E+00  0.000E+00  1.05870E+03  1.626E+00  1.200E+01  6.000E-02  1.542E+00
   1    8    6     2     5    4.0910E+01  2.7717E-01   4.0633E+01  0.000E+00  0.000E+00  0.000E+00  1.05398E+03  1.619E+00  1.200E+01  6.000E-02  1.540E+00
   1    3    5     3     1    2.0000E+00  2.8252E-01   1.7175E+00  0.000E+00  0.000E+00  0.000E+00  1.07555E+03  1.909E+00  9.636E+00  7.227E-02  1.955E+00
   1    3    6     3     2    1.7175E+00  2.4905E-01   1.4684E+00  0.000E+00  0.000E+00  0.000E+00  1.07264E+03  1.727E+00  8.909E+00  6.682E-02  1.864E+00
   1    3    7     3     3    1.4684E+00  1.9718E-01   1.2712E+00  0.000E+00  0.000E+00  0.000E+00  1.06987E+03  1.555E+00  8.218E+00  5.547E-02  1.777E+00
   1    4    8     3     4    1.2712E+00  2.2567E-01   1.0456E+00  0.000E+00  0.000E+00  0.000E+00  1.06682E+03  1.364E+00  7.455E+00  6.709E-02  1.682E+00
   1    5    8     3     5    1.0456E+00  1.5790E-01   8.8768E-01  0.000E+00  0.000E+00  0.000E+00  1.06362E+03  1.164E+00  6.655E+00  4.991E-02  1.582E+00
   1    6    8     3     6    8.8768E-01  5.5980E-02   8.3170E-01  0.000E+00  0.000E+00  0.000E+00  1.06158E+03  1.036E+00  6.145E+00  1.844E-02  1.518E+00
   1    5   10     4     1    1.0000E+01  9.0919E-02   9.9091E+00  0.000E+00  0.000E+00  0.000E+00  1.07836E+03  6.368E-01  1.000E+01  2.500E-02  1.212E+00
   1    5    9     4     2    9.9091E+00  1.8158E-01   9.7275E+00  0.000E+00  0.000E+00  0.000E+00  1.07154E+03  6.315E-01  1.000E+01  5.000E-02  1.211E+00
   1    6    8     4     3    9.7275E+00  1.2689E-01   9.6006E+00  0.000E+00  0.000E+00  0.000E+00  1.06381E+03  6.256E-01  1.000E+01  3.500E-02  1.209E+00
   1    6    8     5     1    1.0432E+01  2.2686E-01   1.0205E+01  0.000E+00  0.000E+00  0.000E+00  1.05868E+03  6.790E-01  1.542E+01  6.166E-02  1.226E+00
   1    7    7     5     2    1.0205E+01  2.7894E-01   9.9265E+00  0.000E+00  0.000E+00  0.000E+00  1.05417E+03  6.732E-01  1.519E+01  7.594E-02  1.224E+00
   1    8    7     5     3    9.9265E+00  1.9221E-01   9.7343E+00  0.000E+00  0.000E+00  0.000E+00  1.04992E+03  6.676E-01  1.497E+01  5.241E-02  1.223E+00
   1    8    6     5     4    9.7343E+00  1.3577E-01   9.5985E+00  0.000E+00  0.000E+00  0.000E+00  1.04691E+03  6.637E-01  1.482E+01  3.706E-02  1.221E+00
   1    9    6     6     1    9.5985E+00  2.2097E-01   9.3776E+00  0.000E+00  0.000E+00  0.000E+00  1.04341E+03  6.828E-01  1.200E+01  6.000E-02  1.228E+00
   1   10    7     6     2    9.3776E+00  2.2039E-01   9.1572E+00  0.000E+00  0.000E+00  0.000E+00  1.03885E+03  6.732E-01  1.200E+01  6.000E-02  1.224E+00
   1   11    7     6     3    9.1572E+00  2.1981E-01   8.9374E+00  0.000E+00  0.000E+00  0.000E+00  1.03430E+03  6.636E-01  1.200E+01  6.000E-02  1.221E+00
   1   12    7     6     4    8.9374E+00  2.1923E-01   8.7181E+00  0.000E+00  0.000E+00  0.000E+00  1.02974E+03  6.539E-01  1.200E+01  6.000E-02  1.218E+00
   1   13    7     6     5    8.7181E+00 -1.2707E-01   8.8452E+00  0.000E+00  0.000E+00  0.000E+00  1.02656E+03  6.518E-01  1.200E+01  2.400E-01 -1.765E-01
   1   14    9     7     1    1.5000E+02  1.3357E+00   1.4866E+02  0.000E+00  0.000E+00  0.000E+00  1.03987E+03  2.288E+00  5.529E+01  5.593E-01  7.961E-01
   1   13    8     7     2    1.4866E+02  1.8233E+00   1.4684E+02  0.000E+00  0.000E+00  0.000E+00  1.03478E+03  2.279E+00  5.526E+01  6.148E-01  9.886E-01
   1   13    7     7     3    1.4684E+02  1.4518E+00   1.4539E+02  0.000E+00  0.000E+00  0.000E+00  1.02969E+03  2.271E+00  5.522E+01  5.585E-01  8.665E-01
   1   13    6     8     1    1.5423E+02  8.0407E-01   1.5343E+02  0.000E+00  0.000E+00  0.000E+00  1.02472E+03  2.844E+00  4.123E+01  4.202E-01  6.379E-01
   1   13    5     8     2    1.5343E+02  8.0266E-02   1.5335E+02  0.000E+00  0.000E+00  0.000E+00  1.01847E+03  2.841E+00  4.119E+01  4.197E-01  6.375E-02
   1   13    4     8     3    1.5335E+02 -2.7346E+00   1.5608E+02  0.000E+00  0.000E+00  0.000E+00  1.01222E+03  2.850E+00  4.132E+01  4.211E+00 -2.165E-01
   1   13    3     8     4    1.5608E+02 -3.7871E+00   1.5987E+02  0.000E+00  0.000E+00  0.000E+00  1.00600E+03  2.872E+00  4.165E+01  4.244E+00 -2.975E-01
   1   13    2     8     5    1.5987E+02 -2.6241E+00   1.6250E+02  0.000E+00  0.000E+00  0.000E+00  9.99769E+02  2.894E+00  4.196E+01  4.276E+00 -2.046E-01
   1   13    1     8     6    1.6250E+02 -2.0106E+00   1.6451E+02  0.000E+00  0.000E+00  0.000E+00  9.94784E+02  2.909E+00  4.219E+01  2.579E+00 -2.598E-01
   1    8    6     9     1    4.0633E+01  0.0000E+00   4.0633E+01  0.000E+00  0.000E+00  0.000E+00  1.08401E+03  5.255E+00  4.000E+00  0.000E+00  2.752E+00
   1    8    5     9     2    4.0633E+01  0.0000E+00   4.0633E+01  0.000E+00  0.000E+00  0.000E+00  1.08351E+03  5.255E+00  4.000E+00  0.000E+00  2.752E+00





UNSATURATED ZONE PACKAGE VOLUMETRIC BUDGET FOR  TIME STEP    30 STRESS PERIOD    9
  ------------------------------------------------------------------------------



     CUMULATIVE VOLUMES      L**3       RATES FOR THIS TIME STEP      L**3/T
     ------------------                 ------------------------

           IN:                                      IN:
           ---                                      ---
        INFILTRATION =   463585491.6990          INFILTRATION =          52.9476

          OUT:                                     OUT:
          ----                                     ----
              UZF ET =   443494201.4446                UZF ET =          52.8401
        UZF RECHARGE =       73224.0000          UZF RECHARGE =       0.0000E+00

            IN - OUT =    20018066.2544              IN - OUT =           0.1076

          STORAGE:                                 STORAGE:
          --------                                 --------
      STORAGE CHANGE =    20018060.3461        STORAGE CHANGE =           0.1076

 PERCENT DISCREPANCY IS DIFFERENCE BETWEEN IN-OUT MINUS CHANGE IN STORAGE
 DIVIDED BY THE AVERAGE OF IN AND OUT TIMES 100

 PERCENT DISCREPANCY =           0.00     PERCENT DISCREPANCY =           0.00






1
  VOLUMETRIC BUDGET FOR AGRICULTURAL FIELDS AT TIME STEP   30, STRESS PERIOD   9
  ------------------------------------------------------------------------------

     CUMULATIVE VOLUMES      L**3       RATES FOR THIS TIME STEP      L**3/T
     ------------------                 ------------------------

           IN:                                      IN:
           ---                                      ---
               AG WELLS  =    44249552.0000                 AG WELLS  =           7.9062
      DIVERSION SEGMENTS =   326522464.0000        DIVERSION SEGMENTS =          40.6331
           GW IRRIGATION =           0.0000             GW IRRIGATION =           0.0000
           SW IRRIGATION =           0.0000             SW IRRIGATION =           0.0000
        SYSTEM LOSSES GW =           0.0000          SYSTEM LOSSES GW =           0.0000
        SYSTEM LOSSES SW =           0.0000          SYSTEM LOSSES SW =           0.0000

                TOTAL IN =   370772032.0000                  TOTAL IN =          48.5393

          OUT:                                     OUT:
          ----                                     ----
               AG WELLS  =           0.0000                 AG WELLS  =           0.0000
      DIVERSION SEGMENTS =           0.0000        DIVERSION SEGMENTS =           0.0000
           GW IRRIGATION =    44249552.0000             GW IRRIGATION =           7.9062
           SW IRRIGATION =   326528928.0000             SW IRRIGATION =          40.6339
        SYSTEM LOSSES GW =           0.0000          SYSTEM LOSSES GW =           0.0000
        SYSTEM LOSSES SW =           0.0000          SYSTEM LOSSES SW =           0.0000

               TOTAL OUT =   370778496.0000                 TOTAL OUT =          48.5401

                IN - OUT =       -6464.0000                  IN - OUT =      -8.0872E-04

     PERCENT DISCREPANCY =          -0.00         PERCENT DISCREPANCY =          -0.00



1
  VOLUMETRIC BUDGET FOR ENTIRE MODEL AT END OF TIME STEP   30, STRESS PERIOD   9
  ------------------------------------------------------------------------------

     CUMULATIVE VOLUMES      L**3       RATES FOR THIS TIME STEP      L**3/T
     ------------------                 ------------------------

           IN:                                      IN:
           ---                                      ---
             STORAGE     =    60696600.0000               STORAGE     =           8.0991
       CONSTANT HEAD     =           0.0000         CONSTANT HEAD     =           0.0000
     HEAD DEP BOUNDS     =     6036437.5000       HEAD DEP BOUNDS     =           0.2858
      STREAM LEAKAGE     =   257432816.0000        STREAM LEAKAGE     =          11.8935
        UZF RECHARGE     =       73223.9531          UZF RECHARGE     =           0.0000
               GW ET     =           0.0000                 GW ET     =           0.0000
     SURFACE LEAKAGE     =           0.0000       SURFACE LEAKAGE     =           0.0000
           AG WELLS      =           0.0000             AG WELLS      =           0.0000

                TOTAL IN =   324239072.0000                  TOTAL IN =          20.2783

          OUT:                                     OUT:
          ----                                     ----
             STORAGE     =    43255764.0000               STORAGE     =           0.7991
       CONSTANT HEAD     =           0.0000         CONSTANT HEAD     =           0.0000
     HEAD DEP BOUNDS     =     6154452.5000       HEAD DEP BOUNDS     =           0.2874
      STREAM LEAKAGE     =   229034368.0000        STREAM LEAKAGE     =          11.2835
        UZF RECHARGE     =           0.0000          UZF RECHARGE     =           0.0000
               GW ET     =     1532013.0000                 GW ET     =           0.0000
     SURFACE LEAKAGE     =           0.0000       SURFACE LEAKAGE     =           0.0000
           AG WELLS      =    44249552.0000             AG WELLS      =           7.9062

               TOTAL OUT =   324226112.0000                 TOTAL OUT =          20.2762

                IN - OUT =       12960.0000                  IN - OUT =       2.1324E-03

     PERCENT DISCREPANCY =           0.00         PERCENT DISCREPANCY =           0.01






         TIME SUMMARY AT END OF TIME STEP   30 IN STRESS PERIOD    9
                    SECONDS     MINUTES      HOURS       DAYS        YEARS
                    -----------------------------------------------------------
   TIME STEP LENGTH  87667.      1461.1      24.352      1.0147     2.77799E-03
 STRESS PERIOD TIME 2.63000E+06  43833.      730.56      30.440     8.33397E-02
         TOTAL TIME 2.11264E+07 3.52107E+05  5868.4      244.52     0.66945    
1
1
                            STRESS PERIOD NO.   10, LENGTH =   2630000.    
                            -----------------------------------------------

                              NUMBER OF TIME STEPS =    30

                               MULTIPLIER FOR DELT =     1.000

                            INITIAL TIME STEP SIZE =   87666.66    

 REUSING NON-PARAMETER GHB CELLS FROM LAST STRESS PERIOD

      2 GHB CELLS

 REUSING STREAM SEGMENT DATA FROM LAST STRESS PERIOD



            AREAL INFILTRATION RATE
 READING ON UNIT   19 WITH FORMAT: (10F4.0)            

            1           2           3           4           5           6           7           8           9          10
 ........................................................................................................................
   1   1.2000E-09   0.000       0.000       0.000       0.000       0.000       0.000       0.000       0.000       0.000    
   2   2.1000E-09  2.0000E-09  8.0000E-10  8.5000E-09   0.000       0.000       0.000       0.000       0.000       0.000    
   3   5.0000E-10  1.1000E-09  8.8000E-09  5.5000E-09   0.000       0.000       0.000       0.000       0.000       0.000    
   4   8.5000E-09  1.1000E-09  1.1000E-09  1.1000E-09  2.0000E-09   0.000       0.000       0.000       0.000       0.000    
   5   8.5000E-09  1.1000E-09  1.1000E-09  1.1000E-09  1.1000E-09   0.000       0.000       0.000       0.000       0.000    
   6   8.5000E-09  5.2000E-09  2.1000E-09  1.1000E-09  1.5000E-09   0.000       0.000       0.000       0.000       0.000    
   7   8.5000E-09  5.2000E-09  2.1000E-09  1.2000E-09  2.0000E-09   0.000       0.000       0.000       0.000       0.000    
   8   5.0000E-10  5.2000E-09  2.1000E-09  1.2000E-09  5.0000E-09   0.000       0.000       0.000       0.000       0.000    
   9   5.0000E-10  5.2000E-09  2.1000E-09  1.2000E-09  5.0000E-09   0.000       0.000       0.000       0.000       0.000    
  10   5.0000E-10  5.2000E-09  2.1000E-09  1.2000E-09  5.8000E-09   0.000       0.000       0.000       0.000       0.000    
  11   1.0000E-10  1.1000E-09  1.1000E-09  1.2000E-09  5.0000E-09   0.000       0.000       0.000       0.000       0.000    
  12   1.1000E-09  1.1000E-09  1.1000E-09  1.1000E-09  2.0000E-09   0.000       0.000       0.000       0.000       0.000    
  13   1.1000E-09  2.2000E-09  2.2000E-09  2.1000E-09  1.0000E-09   0.000       0.000       0.000       0.000       0.000    
  14   2.0000E-10  5.5000E-09  5.5000E-09  5.2000E-09  1.0000E-09   0.000       0.000       0.000       0.000       0.000    
  15    0.000      8.8000E-09  8.8000E-09   0.000       0.000       0.000       0.000       0.000       0.000       0.000    

                  ET RATE =  7.500000E-08

 USING ET EXTINCTION DEPTH FROM PREVIOUS STRESS PERIOD. CURRENT PERIOD IS:      10

 USING EXTINCTION WATER CONTENT FROM PREVIOUS STRESS PERIOD. CURRENT PERIOD IS:      10

 USING AIR ENTRY PRESSURE FROM PREVIOUS STRESS PERIOD. CURRENT PERIOD IS:      10

 USING ROOT PRESSURE HEAD FROM PREVIOUS STRESS PERIOD. CURRENT PERIOD IS:      10

 USING ROOT ACTIVITY FROM PREVIOUS STRESS PERIOD. CURRENT PERIOD IS:      10

 PROCESSING AG STRESS PERIOD DATA

 READING AG STRESS PERIOD DATA

 READING IRRIGATION SEGMENT

 READING IRRIGATION WELL

 READING SUPPLEMENTAL WELL

 END PROCESSING AG STRESS PERIOD DATA OPTIONS
 
 SOLVING FOR HEAD 
                                                   Max.-Head-Change                         Max.-Flux-Residual
  Residual-Control   Outer-Iter.   Inner-Iter.     Column Row Layer    Maximum-Head-Change  Column Row Layer    Maximum-Flux-Residual          L2-NORM 
          0                 1           2             5    6     1       0.1544011176E-01       4   13    1         0.8627968014E+00      0.2558456307E+01
          0                 2           2             4   13     1      -0.4967405315E-02       4   13    1        -0.2933316266E+00      0.5710261715E+00
          0                 3           2             7   13     1       0.1839302968E-03       7   13    1         0.1051298166E-01      0.2141058587E-01
          0                 4           2             4   13     1      -0.1409793985E-03       4   13    1        -0.8320794962E-02      0.1450402324E-01
          0                 5           1             4   13     1      -0.6447321136E-04       4   13    1        -0.3804660179E-02      0.6683662064E-02

    ------------------------------------------------
       NWT REQUIRED            5 OUTER ITERATIONS 
       AND A TOTAL OF          9 INNER ITERATIONS.
    ------------------------------------------------

 NO OUTPUT CONTROL FOR STRESS PERIOD   10   TIME STEP    1
 
 SOLVING FOR HEAD 
                                                   Max.-Head-Change                         Max.-Flux-Residual
  Residual-Control   Outer-Iter.   Inner-Iter.     Column Row Layer    Maximum-Head-Change  Column Row Layer    Maximum-Flux-Residual          L2-NORM 
          0                 1           2             5    6     1       0.1482442887E-01       5    6    1         0.8024653194E+00      0.2269931807E+01
          0                 2           2             4   13     1      -0.4543590869E-02       4   13    1        -0.2679477305E+00      0.5079027245E+00
          0                 3           2             2   13     1      -0.1427288621E-03       2   13    1        -0.8259760612E-02      0.2009230176E-01
          0                 4           2             4   13     1      -0.1357710211E-03       4   13    1        -0.8003324545E-02      0.1397312631E-01
          0                 5           1             4   13     1      -0.6310688091E-04       4   13    1        -0.3719486566E-02      0.6538480218E-02

    ------------------------------------------------
       NWT REQUIRED            5 OUTER ITERATIONS 
       AND A TOTAL OF          9 INNER ITERATIONS.
    ------------------------------------------------

 NO OUTPUT CONTROL FOR STRESS PERIOD   10   TIME STEP    2
 
 SOLVING FOR HEAD 
                                                   Max.-Head-Change                         Max.-Flux-Residual
  Residual-Control   Outer-Iter.   Inner-Iter.     Column Row Layer    Maximum-Head-Change  Column Row Layer    Maximum-Flux-Residual          L2-NORM 
          0                 1           2             5    6     1       0.1424412838E-01       5    6    1         0.7704597626E+00      0.2191946976E+01
          0                 2           2             4   13     1      -0.4478860539E-02       4   13    1        -0.2641113291E+00      0.5004321776E+00
          0                 3           2             2   13     1      -0.1484610221E-03       2   13    1        -0.8591666206E-02      0.2025014726E-01
          0                 4           2             4   13     1      -0.1353359033E-03       4   13    1        -0.7977538407E-02      0.1393648044E-01
          0                 5           1             4   13     1      -0.6115874907E-04       4   13    1        -0.3604654849E-02      0.6338937100E-02

    ------------------------------------------------
       NWT REQUIRED            5 OUTER ITERATIONS 
       AND A TOTAL OF          9 INNER ITERATIONS.
    ------------------------------------------------

 NO OUTPUT CONTROL FOR STRESS PERIOD   10   TIME STEP    3
 
 SOLVING FOR HEAD 
                                                   Max.-Head-Change                         Max.-Flux-Residual
  Residual-Control   Outer-Iter.   Inner-Iter.     Column Row Layer    Maximum-Head-Change  Column Row Layer    Maximum-Flux-Residual          L2-NORM 
          0                 1           2             5    6     1       0.1369733351E-01       5    6    1         0.7403218968E+00      0.2119060233E+01
          0                 2           2             4   13     1      -0.4420314155E-02       4   13    1        -0.2606425562E+00      0.4935224321E+00
          0                 3           2             2   13     1      -0.1539834836E-03       2   13    1        -0.8911436906E-02      0.2042942011E-01
          0                 4           2             4   13     1      -0.1359441837E-03       4   13    1        -0.8013259102E-02      0.1400782054E-01
          0                 5           1             4   13     1      -0.5883141506E-04       4   13    1        -0.3467493812E-02      0.6097022930E-02

    ------------------------------------------------
       NWT REQUIRED            5 OUTER ITERATIONS 
       AND A TOTAL OF          9 INNER ITERATIONS.
    ------------------------------------------------

 NO OUTPUT CONTROL FOR STRESS PERIOD   10   TIME STEP    4
 
 SOLVING FOR HEAD 
                                                   Max.-Head-Change                         Max.-Flux-Residual
  Residual-Control   Outer-Iter.   Inner-Iter.     Column Row Layer    Maximum-Head-Change  Column Row Layer    Maximum-Flux-Residual          L2-NORM 
          0                 1           2             5    6     1       0.1318112639E-01       5    6    1         0.7118881162E+00      0.2050812852E+01
          0                 2           2             4   13     1      -0.4367294782E-02       4   13    1        -0.2575023235E+00      0.4871174125E+00
          0                 3           2             2   13     1      -0.1592368283E-03       2   13    1        -0.9215615264E-02      0.2062063998E-01
          0                 4           2             4   13     1      -0.1365889240E-03       4   13    1        -0.8051149737E-02      0.1407986074E-01
          0                 5           1             4   13     1      -0.5661474807E-04       4   13    1        -0.3336831091E-02      0.5870090981E-02

    ------------------------------------------------
       NWT REQUIRED            5 OUTER ITERATIONS 
       AND A TOTAL OF          9 INNER ITERATIONS.
    ------------------------------------------------

 NO OUTPUT CONTROL FOR STRESS PERIOD   10   TIME STEP    5
 
 SOLVING FOR HEAD 
                                                   Max.-Head-Change                         Max.-Flux-Residual
  Residual-Control   Outer-Iter.   Inner-Iter.     Column Row Layer    Maximum-Head-Change  Column Row Layer    Maximum-Flux-Residual          L2-NORM 
          0                 1           2             5    6     1       0.1269369151E-01       5    6    1         0.6850568616E+00      0.1986819814E+01
          0                 2           2             4   13     1      -0.4319215532E-02       4   13    1        -0.2546556489E+00      0.4811783398E+00
          0                 3           2             2   13     1      -0.1642218843E-03       2   13    1        -0.9504223956E-02      0.2082326775E-01
          0                 4           2             4   13     1      -0.1372334643E-03       4   13    1        -0.8089034387E-02      0.1415253262E-01
          0                 5           1             4   13     1      -0.5459294552E-04       4   13    1        -0.3217664793E-02      0.5662154217E-02

    ------------------------------------------------
       NWT REQUIRED            5 OUTER ITERATIONS 
       AND A TOTAL OF          9 INNER ITERATIONS.
    ------------------------------------------------

 NO OUTPUT CONTROL FOR STRESS PERIOD   10   TIME STEP    6
 
 SOLVING FOR HEAD 
                                                   Max.-Head-Change                         Max.-Flux-Residual
  Residual-Control   Outer-Iter.   Inner-Iter.     Column Row Layer    Maximum-Head-Change  Column Row Layer    Maximum-Flux-Residual          L2-NORM 
          0                 1           2             5    7     1       0.1224310071E-01       5    6    1         0.6597174236E+00      0.1926725510E+01
          0                 2           2             4   13     1      -0.4275584418E-02       4   13    1        -0.2520732186E+00      0.4756646027E+00
          0                 3           2             2   13     1      -0.1690440089E-03       2   13    1        -0.9783328033E-02      0.2104000370E-01
          0                 4           2             4   13     1      -0.1378819512E-03       4   13    1        -0.8127283983E-02      0.1421804792E-01
          0                 5           1             4   13     1      -0.5274406497E-04       4   13    1        -0.3108677789E-02      0.5472797162E-02

    ------------------------------------------------
       NWT REQUIRED            5 OUTER ITERATIONS 
       AND A TOTAL OF          9 INNER ITERATIONS.
    ------------------------------------------------

 NO OUTPUT CONTROL FOR STRESS PERIOD   10   TIME STEP    7
 
 SOLVING FOR HEAD 
                                                   Max.-Head-Change                         Max.-Flux-Residual
  Residual-Control   Outer-Iter.   Inner-Iter.     Column Row Layer    Maximum-Head-Change  Column Row Layer    Maximum-Flux-Residual          L2-NORM 
          0                 1           2             5    7     1       0.1198911205E-01       5    7    1         0.6363017028E+00      0.1870234277E+01
          0                 2           2             4   13     1      -0.4239508102E-02       4   13    1        -0.2499376222E+00      0.4708861701E+00
          0                 3           2             2   13     1      -0.1710712289E-03       2   13    1        -0.9900845826E-02      0.2103107474E-01
          0                 4           2             4   13     1      -0.1378785019E-03       4   13    1        -0.8126886253E-02      0.1422839248E-01
          0                 5           1             4   13     1      -0.5090725316E-04       4   13    1        -0.3000438249E-02      0.5281377216E-02

    ------------------------------------------------
       NWT REQUIRED            5 OUTER ITERATIONS 
       AND A TOTAL OF          9 INNER ITERATIONS.
    ------------------------------------------------

 NO OUTPUT CONTROL FOR STRESS PERIOD   10   TIME STEP    8
 
 SOLVING FOR HEAD 
                                                   Max.-Head-Change                         Max.-Flux-Residual
  Residual-Control   Outer-Iter.   Inner-Iter.     Column Row Layer    Maximum-Head-Change  Column Row Layer    Maximum-Flux-Residual          L2-NORM 
          0                 1           2             5    7     1       0.1174026210E-01       5    7    1         0.6230994998E+00      0.1817024565E+01
          0                 2           2             4   13     1      -0.4201750665E-02       4   13    1        -0.2477049230E+00      0.4659586055E+00
          0                 3           2             2   13     1      -0.1767480927E-03       2   13    1        -0.1022944688E-01      0.2136156085E-01
          0                 4           2             4   13     1      -0.1388486756E-03       4   13    1        -0.8184040907E-02      0.1432901966E-01
          0                 5           1             4   13     1      -0.4939962112E-04       4   13    1        -0.2911576113E-02      0.5125828898E-02

    ------------------------------------------------
       NWT REQUIRED            5 OUTER ITERATIONS 
       AND A TOTAL OF          9 INNER ITERATIONS.
    ------------------------------------------------

 NO OUTPUT CONTROL FOR STRESS PERIOD   10   TIME STEP    9
 
 SOLVING FOR HEAD 
                                                   Max.-Head-Change                         Max.-Flux-Residual
  Residual-Control   Outer-Iter.   Inner-Iter.     Column Row Layer    Maximum-Head-Change  Column Row Layer    Maximum-Flux-Residual          L2-NORM 
          0                 1           2             4    7     1       0.1157049242E-01       5    7    1         0.6101637353E+00      0.1766854496E+01
          0                 2           2             4   13     1      -0.4168556008E-02       4   13    1        -0.2457424441E+00      0.4614877339E+00
          0                 3           2             2   13     1      -0.1812797778E-03       2   13    1        -0.1049175085E-01      0.2161360099E-01
          0                 4           2             4   13     1      -0.1395595812E-03       4   13    1        -0.8225933669E-02      0.1440448679E-01
          0                 5           1             4   13     1      -0.4797663333E-04       4   13    1        -0.2827662551E-02      0.4979032792E-02

    ------------------------------------------------
       NWT REQUIRED            5 OUTER ITERATIONS 
       AND A TOTAL OF          9 INNER ITERATIONS.
    ------------------------------------------------

 NO OUTPUT CONTROL FOR STRESS PERIOD   10   TIME STEP   10
 
 SOLVING FOR HEAD 
                                                   Max.-Head-Change                         Max.-Flux-Residual
  Residual-Control   Outer-Iter.   Inner-Iter.     Column Row Layer    Maximum-Head-Change  Column Row Layer    Maximum-Flux-Residual          L2-NORM 
          0                 1           2             4    7     1       0.1147948791E-01       4    7    1         0.6011941474E+00      0.1719491965E+01
          0                 2           2             4   13     1      -0.4131134816E-02       4   13    1        -0.2435325717E+00      0.4566294942E+00
          0                 3           2             2   13     1      -0.1908331320E-03       2   13    1        -0.1104460368E-01      0.2234409919E-01
          0                 4           2             4   13     1      -0.1414802351E-03       4   13    1        -0.8339103207E-02      0.1460534634E-01
          0                 5           1             4   13     1      -0.4694359522E-04       4   13    1        -0.2766773487E-02      0.4872957982E-02

    ------------------------------------------------
       NWT REQUIRED            5 OUTER ITERATIONS 
       AND A TOTAL OF          9 INNER ITERATIONS.
    ------------------------------------------------

 NO OUTPUT CONTROL FOR STRESS PERIOD   10   TIME STEP   11
 
 SOLVING FOR HEAD 
                                                   Max.-Head-Change                         Max.-Flux-Residual
  Residual-Control   Outer-Iter.   Inner-Iter.     Column Row Layer    Maximum-Head-Change  Column Row Layer    Maximum-Flux-Residual          L2-NORM 
          0                 1           2             4    7     1       0.1138317719E-01       4    7    1         0.5964756492E+00      0.1674717609E+01
          0                 2           2             4   13     1      -0.4111972926E-02       4   13    1        -0.2423987150E+00      0.4535680241E+00
          0                 3           2             2   13     1      -0.1889689552E-03       2   13    1        -0.1093684441E-01      0.2204037600E-01
          0                 4           2             4   13     1      -0.1407568812E-03       4   13    1        -0.8296451753E-02      0.1452977098E-01
          0                 5           1             4   13     1      -0.4536547929E-04       4   13    1        -0.2673769370E-02      0.4708509026E-02

    ------------------------------------------------
       NWT REQUIRED            5 OUTER ITERATIONS 
       AND A TOTAL OF          9 INNER ITERATIONS.
    ------------------------------------------------

 NO OUTPUT CONTROL FOR STRESS PERIOD   10   TIME STEP   12
 
 SOLVING FOR HEAD 
                                                   Max.-Head-Change                         Max.-Flux-Residual
  Residual-Control   Outer-Iter.   Inner-Iter.     Column Row Layer    Maximum-Head-Change  Column Row Layer    Maximum-Flux-Residual          L2-NORM 
          0                 1           2             4    7     1       0.1128185006E-01       4    7    1         0.5914672339E+00      0.1632333705E+01
          0                 2           2             4   13     1      -0.4088211209E-02       4   13    1        -0.2409951721E+00      0.4500875896E+00
          0                 3           2             2   13     1      -0.1919855465E-03       2   13    1        -0.1111146191E-01      0.2219750157E-01
          0                 4           2             4   13     1      -0.1411891776E-03       4   13    1        -0.8321912919E-02      0.1457458775E-01
          0                 5           1             4   13     1      -0.4415994957E-04       4   13    1        -0.2602707693E-02      0.4585334125E-02

    ------------------------------------------------
       NWT REQUIRED            5 OUTER ITERATIONS 
       AND A TOTAL OF          9 INNER ITERATIONS.
    ------------------------------------------------

 NO OUTPUT CONTROL FOR STRESS PERIOD   10   TIME STEP   13
 
 SOLVING FOR HEAD 
                                                   Max.-Head-Change                         Max.-Flux-Residual
  Residual-Control   Outer-Iter.   Inner-Iter.     Column Row Layer    Maximum-Head-Change  Column Row Layer    Maximum-Flux-Residual          L2-NORM 
          0                 1           2             4    7     1       0.1117604598E-01       4    7    1         0.5861987218E+00      0.1592161989E+01
          0                 2           2             4   13     1      -0.4066682477E-02       4   13    1        -0.2397240913E+00      0.4468503141E+00
          0                 3           2             2   13     1      -0.1948030956E-03       2   13    1        -0.1127456649E-01      0.2234603861E-01
          0                 4           2             4   13     1      -0.1416347912E-03       4   13    1        -0.8348163627E-02      0.1462123628E-01
          0                 5           1             4   13     1      -0.4304867358E-04       4   13    1        -0.2537198388E-02      0.4470085482E-02

    ------------------------------------------------
       NWT REQUIRED            5 OUTER ITERATIONS 
       AND A TOTAL OF          9 INNER ITERATIONS.
    ------------------------------------------------

 NO OUTPUT CONTROL FOR STRESS PERIOD   10   TIME STEP   14
 
 SOLVING FOR HEAD 
                                                   Max.-Head-Change                         Max.-Flux-Residual
  Residual-Control   Outer-Iter.   Inner-Iter.     Column Row Layer    Maximum-Head-Change  Column Row Layer    Maximum-Flux-Residual          L2-NORM 
          0                 1           2             4    7     1       0.1106627680E-01       4    7    1         0.5806980821E+00      0.1554044297E+01
          0                 2           2             4   13     1      -0.4047112349E-02       4   13    1        -0.2385690024E+00      0.4438405765E+00
          0                 3           2             2   13     1      -0.1974428751E-03       2   13    1        -0.1142733807E-01      0.2249017883E-01
          0                 4           2             4   13     1      -0.1420367046E-03       4   13    1        -0.8371845724E-02      0.1466210410E-01
          0                 5           1             4   13     1      -0.4204699252E-04       4   13    1        -0.2478175367E-02      0.4364790772E-02

    ------------------------------------------------
       NWT REQUIRED            5 OUTER ITERATIONS 
       AND A TOTAL OF          9 INNER ITERATIONS.
    ------------------------------------------------

 NO OUTPUT CONTROL FOR STRESS PERIOD   10   TIME STEP   15
 
 SOLVING FOR HEAD 
                                                   Max.-Head-Change                         Max.-Flux-Residual
  Residual-Control   Outer-Iter.   Inner-Iter.     Column Row Layer    Maximum-Head-Change  Column Row Layer    Maximum-Flux-Residual          L2-NORM 
          0                 1           2             4    7     1       0.1095300801E-01       4    7    1         0.5749918553E+00      0.1517843602E+01
          0                 2           2             4   13     1      -0.4029317784E-02       4   13    1        -0.2375193540E+00      0.4410421084E+00
          0                 3           2             2   13     1      -0.1999643947E-03       2   13    1        -0.1157329984E-01      0.2263069197E-01
          0                 4           2             4   13     1      -0.1424141752E-03       4   13    1        -0.8394090290E-02      0.1470095311E-01
          0                 5           1             4   13     1      -0.4167985007E-04       4   13    1        -0.2456545430E-02      0.4326988541E-02

    ------------------------------------------------
       NWT REQUIRED            5 OUTER ITERATIONS 
       AND A TOTAL OF          9 INNER ITERATIONS.
    ------------------------------------------------

 NO OUTPUT CONTROL FOR STRESS PERIOD   10   TIME STEP   16
 
 SOLVING FOR HEAD 
                                                   Max.-Head-Change                         Max.-Flux-Residual
  Residual-Control   Outer-Iter.   Inner-Iter.     Column Row Layer    Maximum-Head-Change  Column Row Layer    Maximum-Flux-Residual          L2-NORM 
          0                 1           2             4    7     1       0.1083695653E-01       4    7    1         0.5691189712E+00      0.1483424914E+01
          0                 2           2             4   13     1      -0.4013197390E-02       4   13    1        -0.2365671998E+00      0.4384410318E+00
          0                 3           2             2   13     1      -0.2022422346E-03       2   13    1        -0.1170511446E-01      0.2275534854E-01
          0                 4           2             4   13     1      -0.1428071454E-03       4   13    1        -0.8417281891E-02      0.1473966010E-01
          0                 5           1             4   13     1      -0.4184606998E-04       4   13    1        -0.2466345089E-02      0.4344630985E-02

    ------------------------------------------------
       NWT REQUIRED            5 OUTER ITERATIONS 
       AND A TOTAL OF          9 INNER ITERATIONS.
    ------------------------------------------------

 NO OUTPUT CONTROL FOR STRESS PERIOD   10   TIME STEP   17
 
 SOLVING FOR HEAD 
                                                   Max.-Head-Change                         Max.-Flux-Residual
  Residual-Control   Outer-Iter.   Inner-Iter.     Column Row Layer    Maximum-Head-Change  Column Row Layer    Maximum-Flux-Residual          L2-NORM 
          0                 1           2             4    7     1       0.1071823898E-01       4    7    1         0.5630870112E+00      0.1450659998E+01
          0                 2           2             4   13     1      -0.3998466217E-02       4   13    1        -0.2357012285E+00      0.4359901067E+00
          0                 3           2             2   13     1      -0.2043792828E-03       2   13    1        -0.1182881329E-01      0.2287404945E-01
          0                 4           2             4   13     1      -0.1431172204E-03       4   13    1        -0.8435557274E-02      0.1477103315E-01
          0                 5           1             4   13     1      -0.4201929891E-04       4   13    1        -0.2476548116E-02      0.4363274590E-02

    ------------------------------------------------
       NWT REQUIRED            5 OUTER ITERATIONS 
       AND A TOTAL OF          9 INNER ITERATIONS.
    ------------------------------------------------

 NO OUTPUT CONTROL FOR STRESS PERIOD   10   TIME STEP   18
 
 SOLVING FOR HEAD 
                                                   Max.-Head-Change                         Max.-Flux-Residual
  Residual-Control   Outer-Iter.   Inner-Iter.     Column Row Layer    Maximum-Head-Change  Column Row Layer    Maximum-Flux-Residual          L2-NORM 
          0                 1           2             4    7     1       0.1059696790E-01       4    7    1         0.5569020205E+00      0.1419427837E+01
          0                 2           2             4   13     1      -0.3608097657E-02       4   13    1        -0.2127173524E+00      0.3967947206E+00
          0                 3           2             4   13     1      -0.4779150520E-03       4   13    1        -0.2817295261E-01      0.5059325680E-01
          0                 4           2             4   13     1      -0.2075448581E-03       4   13    1        -0.1223304200E-01      0.2147276395E-01
          0                 5           1             4   13     1      -0.6534672507E-04       4   13    1        -0.3851482398E-02      0.6776712801E-02

    ------------------------------------------------
       NWT REQUIRED            5 OUTER ITERATIONS 
       AND A TOTAL OF          9 INNER ITERATIONS.
    ------------------------------------------------

 NO OUTPUT CONTROL FOR STRESS PERIOD   10   TIME STEP   19
 
 SOLVING FOR HEAD 
                                                   Max.-Head-Change                         Max.-Flux-Residual
  Residual-Control   Outer-Iter.   Inner-Iter.     Column Row Layer    Maximum-Head-Change  Column Row Layer    Maximum-Flux-Residual          L2-NORM 
          0                 1           2             4    7     1       0.1047404910E-01       4    7    1         0.5506142228E+00      0.1389613183E+01
          0                 2           2             4   13     1      -0.3592206035E-02       4   13    1        -0.2117813709E+00      0.3942490812E+00
          0                 3           2             4   13     1      -0.4831592942E-03       4   13    1        -0.2848203477E-01      0.5109680016E-01
          0                 4           2             4   13     1      -0.2088446935E-03       4   13    1        -0.1230967329E-01      0.2160492309E-01
          0                 5           1             4   13     1      -0.6589718134E-04       4   13    1        -0.3883922347E-02      0.6833277663E-02

    ------------------------------------------------
       NWT REQUIRED            5 OUTER ITERATIONS 
       AND A TOTAL OF          9 INNER ITERATIONS.
    ------------------------------------------------

 NO OUTPUT CONTROL FOR STRESS PERIOD   10   TIME STEP   20
 
 SOLVING FOR HEAD 
                                                   Max.-Head-Change                         Max.-Flux-Residual
  Residual-Control   Outer-Iter.   Inner-Iter.     Column Row Layer    Maximum-Head-Change  Column Row Layer    Maximum-Flux-Residual          L2-NORM 
          0                 1           2             4    7     1       0.1034951602E-01       4    7    1         0.5442261958E+00      0.1361145692E+01
          0                 2           2             4   13     1      -0.3577142810E-02       4   13    1        -0.2108944260E+00      0.3918248859E+00
          0                 3           2             4   13     1      -0.4883532703E-03       4   13    1        -0.2878820873E-01      0.5159177421E-01
          0                 4           2             4   13     1      -0.2101231105E-03       4   13    1        -0.1238502752E-01      0.2173632982E-01
          0                 5           1             4   13     1      -0.6642822386E-04       4   13    1        -0.3915181654E-02      0.6889321978E-02

    ------------------------------------------------
       NWT REQUIRED            5 OUTER ITERATIONS 
       AND A TOTAL OF          9 INNER ITERATIONS.
    ------------------------------------------------

 NO OUTPUT CONTROL FOR STRESS PERIOD   10   TIME STEP   21
 
 SOLVING FOR HEAD 
                                                   Max.-Head-Change                         Max.-Flux-Residual
  Residual-Control   Outer-Iter.   Inner-Iter.     Column Row Layer    Maximum-Head-Change  Column Row Layer    Maximum-Flux-Residual          L2-NORM 
          0                 1           2             4    7     1       0.1022368224E-01       4    7    1         0.5377544688E+00      0.1333961028E+01
          0                 2           2             4   13     1      -0.3556211903E-02       4   13    1        -0.2096622369E+00      0.3888594518E+00
          0                 3           2             4   13     1      -0.4984072135E-03       4   13    1        -0.2938088029E-01      0.5256983792E-01
          0                 4           2             4   13     1      -0.2124843451E-03       4   13    1        -0.1252420325E-01      0.2197837312E-01
          0                 5           1             4   13     1      -0.6736308605E-04       4   13    1        -0.3970338777E-02      0.6982289777E-02

    ------------------------------------------------
       NWT REQUIRED            5 OUTER ITERATIONS 
       AND A TOTAL OF          9 INNER ITERATIONS.
    ------------------------------------------------

 NO OUTPUT CONTROL FOR STRESS PERIOD   10   TIME STEP   22
 
 SOLVING FOR HEAD 
                                                   Max.-Head-Change                         Max.-Flux-Residual
  Residual-Control   Outer-Iter.   Inner-Iter.     Column Row Layer    Maximum-Head-Change  Column Row Layer    Maximum-Flux-Residual          L2-NORM 
          0                 1           2             4    7     1       0.1009709038E-01       4    7    1         0.5312300987E+00      0.1307960844E+01
          0                 2           2             4   13     1      -0.3543605531E-02       4   13    1        -0.2089204188E+00      0.3867410911E+00
          0                 3           2             4   13     1      -0.5026814244E-03       4   13    1        -0.2963282180E-01      0.5297917833E-01
          0                 4           2             4   13     1      -0.2134758165E-03       4   13    1        -0.1258290233E-01      0.2206825459E-01
          0                 5           1             4   13     1      -0.6778843698E-04       4   13    1        -0.3995125315E-02      0.7038922689E-02

    ------------------------------------------------
       NWT REQUIRED            5 OUTER ITERATIONS 
       AND A TOTAL OF          9 INNER ITERATIONS.
    ------------------------------------------------

 NO OUTPUT CONTROL FOR STRESS PERIOD   10   TIME STEP   23
 
 SOLVING FOR HEAD 
                                                   Max.-Head-Change                         Max.-Flux-Residual
  Residual-Control   Outer-Iter.   Inner-Iter.     Column Row Layer    Maximum-Head-Change  Column Row Layer    Maximum-Flux-Residual          L2-NORM 
          0                 1           2             4    7     1       0.9969440924E-02       4    7    1         0.5246368266E+00      0.1283076529E+01
          0                 2           2             4   13     1      -0.3531330712E-02       4   13    1        -0.2081983498E+00      0.3846879509E+00
          0                 3           2             4   13     1      -0.5070336424E-03       4   13    1        -0.2988933771E-01      0.5339930852E-01
          0                 4           2             4   13     1      -0.2144518721E-03       4   13    1        -0.1264019265E-01      0.2217898829E-01
          0                 5           1             4   13     1      -0.6817141342E-04       4   13    1        -0.4017957597E-02      0.7066618803E-02

    ------------------------------------------------
       NWT REQUIRED            5 OUTER ITERATIONS 
       AND A TOTAL OF          9 INNER ITERATIONS.
    ------------------------------------------------

 NO OUTPUT CONTROL FOR STRESS PERIOD   10   TIME STEP   24
 
 SOLVING FOR HEAD 
                                                   Max.-Head-Change                         Max.-Flux-Residual
  Residual-Control   Outer-Iter.   Inner-Iter.     Column Row Layer    Maximum-Head-Change  Column Row Layer    Maximum-Flux-Residual          L2-NORM 
          0                 1           2             4    7     1       0.9841262971E-02       4    7    1         0.5180035161E+00      0.1259238564E+01
          0                 2           2             4   13     1      -0.3519346212E-02       4   13    1        -0.2074934889E+00      0.3826967781E+00
          0                 3           2             4   13     1      -0.5114631533E-03       4   13    1        -0.3015040807E-01      0.5382974320E-01
          0                 4           2             4   13     1      -0.2154374831E-03       4   13    1        -0.1269829731E-01      0.2227937142E-01
          0                 5           1             4   13     1      -0.6857100641E-04       4   13    1        -0.4041521861E-02      0.7106686090E-02

    ------------------------------------------------
       NWT REQUIRED            5 OUTER ITERATIONS 
       AND A TOTAL OF          9 INNER ITERATIONS.
    ------------------------------------------------

 NO OUTPUT CONTROL FOR STRESS PERIOD   10   TIME STEP   25
 
 SOLVING FOR HEAD 
                                                   Max.-Head-Change                         Max.-Flux-Residual
  Residual-Control   Outer-Iter.   Inner-Iter.     Column Row Layer    Maximum-Head-Change  Column Row Layer    Maximum-Flux-Residual          L2-NORM 
          0                 1           2             4    7     1       0.9712766264E-02       4    7    1         0.5113428027E+00      0.1236386642E+01
          0                 2           2             4   13     1      -0.3507675733E-02       4   13    1        -0.2068072442E+00      0.3807668265E+00
          0                 3           2             4   13     1      -0.5159828787E-03       4   13    1        -0.3041678938E-01      0.5427121272E-01
          0                 4           2             4   13     1      -0.2164283900E-03       4   13    1        -0.1275672263E-01      0.2238038577E-01
          0                 5           1             4   13     1      -0.6895129636E-04       4   13    1        -0.4063933210E-02      0.7145391434E-02

    ------------------------------------------------
       NWT REQUIRED            5 OUTER ITERATIONS 
       AND A TOTAL OF          9 INNER ITERATIONS.
    ------------------------------------------------

 NO OUTPUT CONTROL FOR STRESS PERIOD   10   TIME STEP   26
 
 SOLVING FOR HEAD 
                                                   Max.-Head-Change                         Max.-Flux-Residual
  Residual-Control   Outer-Iter.   Inner-Iter.     Column Row Layer    Maximum-Head-Change  Column Row Layer    Maximum-Flux-Residual          L2-NORM 
          0                 1           2             4    7     1       0.9584428762E-02       4    7    1         0.5046803605E+00      0.1214471847E+01
          0                 2           2             4   13     1      -0.3496289498E-02       4   13    1        -0.2061378298E+00      0.3788991121E+00
          0                 3           2             4   13     1      -0.5206072988E-03       4   13    1        -0.3068934488E-01      0.5472086371E-01
          0                 4           2             4   13     1      -0.2174101406E-03       4   13    1        -0.1281459718E-01      0.2248146842E-01
          0                 5           1             4   13     1      -0.6935229889E-04       4   13    1        -0.4087572075E-02      0.7186396776E-02

    ------------------------------------------------
       NWT REQUIRED            5 OUTER ITERATIONS 
       AND A TOTAL OF          9 INNER ITERATIONS.
    ------------------------------------------------

 NO OUTPUT CONTROL FOR STRESS PERIOD   10   TIME STEP   27
 
 SOLVING FOR HEAD 
                                                   Max.-Head-Change                         Max.-Flux-Residual
  Residual-Control   Outer-Iter.   Inner-Iter.     Column Row Layer    Maximum-Head-Change  Column Row Layer    Maximum-Flux-Residual          L2-NORM 
          0                 1           2             4    7     1       0.9455871494E-02       4    7    1         0.4979965743E+00      0.1193423640E+01
          0                 2           2             4   13     1      -0.3485159729E-02       4   13    1        -0.2054835734E+00      0.3770799737E+00
          0                 3           2             4   13     1      -0.5253195385E-03       4   13    1        -0.3096707700E-01      0.5518909196E-01
          0                 4           2             4   13     1      -0.2184355316E-03       4   13    1        -0.1287504574E-01      0.2258617680E-01
          0                 5           1             4   13     1      -0.6973785354E-04       4   13    1        -0.4110310586E-02      0.7224907576E-02

    ------------------------------------------------
       NWT REQUIRED            5 OUTER ITERATIONS 
       AND A TOTAL OF          9 INNER ITERATIONS.
    ------------------------------------------------

 NO OUTPUT CONTROL FOR STRESS PERIOD   10   TIME STEP   28
 
 SOLVING FOR HEAD 
                                                   Max.-Head-Change                         Max.-Flux-Residual
  Residual-Control   Outer-Iter.   Inner-Iter.     Column Row Layer    Maximum-Head-Change  Column Row Layer    Maximum-Flux-Residual          L2-NORM 
          0                 1           2             4    7     1       0.9327552433E-02       4    7    1         0.4913161918E+00      0.1173201498E+01
          0                 2           2             4   13     1      -0.3474282382E-02       4   13    1        -0.2048442549E+00      0.3753156120E+00
          0                 3           2             4   13     1      -0.5301261420E-03       4   13    1        -0.3125036786E-01      0.5566404728E-01
          0                 4           2             4   13     1      -0.2194768743E-03       4   13    1        -0.1293645052E-01      0.2269126906E-01
          0                 5           1             4   13     1      -0.7011519669E-04       4   13    1        -0.4132540086E-02      0.7265643610E-02

    ------------------------------------------------
       NWT REQUIRED            5 OUTER ITERATIONS 
       AND A TOTAL OF          9 INNER ITERATIONS.
    ------------------------------------------------

 NO OUTPUT CONTROL FOR STRESS PERIOD   10   TIME STEP   29
 
 SOLVING FOR HEAD 
                                                   Max.-Head-Change                         Max.-Flux-Residual
  Residual-Control   Outer-Iter.   Inner-Iter.     Column Row Layer    Maximum-Head-Change  Column Row Layer    Maximum-Flux-Residual          L2-NORM 
          0                 1           2             4    7     1       0.9199894751E-02       4    7    1         0.4846629592E+00      0.1153762627E+01
          0                 2           2             4   13     1      -0.3463525985E-02       4   13    1        -0.2042120464E+00      0.3735965347E+00
          0                 3           2             4   13     1      -0.5350555551E-03       4   13    1        -0.3154089209E-01      0.5615341009E-01
          0                 4           2             4   13     1      -0.2205393703E-03       4   13    1        -0.1299909257E-01      0.2280029798E-01
          0                 5           1             4   13     1      -0.7052470694E-04       4   13    1        -0.4156686598E-02      0.7306026924E-02

    ------------------------------------------------
       NWT REQUIRED            5 OUTER ITERATIONS 
       AND A TOTAL OF          9 INNER ITERATIONS.
    ------------------------------------------------

 NO OUTPUT CONTROL FOR STRESS PERIOD   10   TIME STEP   30



 STREAM LISTING     PERIOD     10   STEP       30

 LAYER ROW COL. STREAM  RCH.  FLOW INTO     FLOW TO   FLOW OUT OF   OVRLND.     DIRECT     STREAM       STREAM     STREAM     STREAM   STREAMBED  STREAMBED
                SEG.NO.  NO.  STRM. RCH.    AQUIFER    STRM. RCH.    RUNOFF     PRECIP       ET          HEAD       DEPTH      WIDTH   CONDCTNC.   GRADIENT

   1    1    1     1     1    3.5250E+01  2.8720E-01   3.4963E+01  0.000E+00  0.000E+00  0.000E+00  1.09434E+03  1.294E+00  1.486E+01  6.688E-02  1.431E+00
   1    2    2     1     2    3.4963E+01  4.4467E-01   3.4518E+01  0.000E+00  0.000E+00  0.000E+00  1.08935E+03  1.291E+00  1.480E+01  1.036E-01  1.430E+00
   1    3    3     1     3    3.4518E+01  3.7912E-01   3.4139E+01  0.000E+00  0.000E+00  0.000E+00  1.08371E+03  1.288E+00  1.474E+01  8.841E-02  1.429E+00
   1    3    4     1     4    3.4139E+01  3.4902E-01   3.3790E+01  0.000E+00  0.000E+00  0.000E+00  1.07869E+03  1.285E+00  1.468E+01  8.145E-02  1.428E+00
   1    4    5     2     1    3.1790E+01  3.4244E-01   3.1447E+01  0.000E+00  0.000E+00  0.000E+00  1.07332E+03  1.390E+00  1.200E+01  7.800E-02  1.463E+00
   1    5    6     2     2    3.1447E+01  2.6294E-01   3.1184E+01  0.000E+00  0.000E+00  0.000E+00  1.06789E+03  1.382E+00  1.200E+01  6.000E-02  1.461E+00
   1    6    6     2     3    3.1184E+01  2.6252E-01   3.0922E+01  0.000E+00  0.000E+00  0.000E+00  1.06317E+03  1.375E+00  1.200E+01  6.000E-02  1.458E+00
   1    7    6     2     4    3.0922E+01  2.6210E-01   3.0660E+01  0.000E+00  0.000E+00  0.000E+00  1.05844E+03  1.368E+00  1.200E+01  6.000E-02  1.456E+00
   1    8    6     2     5    3.0660E+01  2.6168E-01   3.0398E+01  0.000E+00  0.000E+00  0.000E+00  1.05372E+03  1.361E+00  1.200E+01  6.000E-02  1.454E+00
   1    3    5     3     1    2.0000E+00  2.8252E-01   1.7175E+00  0.000E+00  0.000E+00  0.000E+00  1.07555E+03  1.909E+00  9.636E+00  7.227E-02  1.955E+00
   1    3    6     3     2    1.7175E+00  2.4905E-01   1.4684E+00  0.000E+00  0.000E+00  0.000E+00  1.07264E+03  1.727E+00  8.909E+00  6.682E-02  1.864E+00
   1    3    7     3     3    1.4684E+00  1.9718E-01   1.2712E+00  0.000E+00  0.000E+00  0.000E+00  1.06987E+03  1.555E+00  8.218E+00  5.547E-02  1.777E+00
   1    4    8     3     4    1.2712E+00  2.2567E-01   1.0456E+00  0.000E+00  0.000E+00  0.000E+00  1.06682E+03  1.364E+00  7.455E+00  6.709E-02  1.682E+00
   1    5    8     3     5    1.0456E+00  1.5790E-01   8.8768E-01  0.000E+00  0.000E+00  0.000E+00  1.06362E+03  1.164E+00  6.655E+00  4.991E-02  1.582E+00
   1    6    8     3     6    8.8768E-01  5.5980E-02   8.3170E-01  0.000E+00  0.000E+00  0.000E+00  1.06158E+03  1.036E+00  6.145E+00  1.844E-02  1.518E+00
   1    5   10     4     1    1.0000E+01  9.0919E-02   9.9091E+00  0.000E+00  0.000E+00  0.000E+00  1.07836E+03  6.368E-01  1.000E+01  2.500E-02  1.212E+00
   1    5    9     4     2    9.9091E+00  1.8158E-01   9.7275E+00  0.000E+00  0.000E+00  0.000E+00  1.07154E+03  6.315E-01  1.000E+01  5.000E-02  1.211E+00
   1    6    8     4     3    9.7275E+00  1.2689E-01   9.6006E+00  0.000E+00  0.000E+00  0.000E+00  1.06381E+03  6.256E-01  1.000E+01  3.500E-02  1.209E+00
   1    6    8     5     1    1.0432E+01  2.2686E-01   1.0205E+01  0.000E+00  0.000E+00  0.000E+00  1.05868E+03  6.790E-01  1.542E+01  6.166E-02  1.226E+00
   1    7    7     5     2    1.0205E+01  2.7894E-01   9.9265E+00  0.000E+00  0.000E+00  0.000E+00  1.05417E+03  6.732E-01  1.519E+01  7.594E-02  1.224E+00
   1    8    7     5     3    9.9265E+00  1.9221E-01   9.7343E+00  0.000E+00  0.000E+00  0.000E+00  1.04992E+03  6.676E-01  1.497E+01  5.241E-02  1.223E+00
   1    8    6     5     4    9.7343E+00  1.3577E-01   9.5985E+00  0.000E+00  0.000E+00  0.000E+00  1.04691E+03  6.637E-01  1.482E+01  3.706E-02  1.221E+00
   1    9    6     6     1    2.8974E+01  2.5995E-01   2.8714E+01  0.000E+00  0.000E+00  0.000E+00  1.04406E+03  1.333E+00  1.200E+01  6.000E-02  1.444E+00
   1   10    7     6     2    2.8714E+01  2.5952E-01   2.8454E+01  0.000E+00  0.000E+00  0.000E+00  1.03951E+03  1.325E+00  1.200E+01  6.000E-02  1.442E+00
   1   11    7     6     3    2.8454E+01  2.5909E-01   2.8195E+01  0.000E+00  0.000E+00  0.000E+00  1.03495E+03  1.318E+00  1.200E+01  6.000E-02  1.439E+00
   1   12    7     6     4    2.8195E+01  2.5866E-01   2.7937E+01  0.000E+00  0.000E+00  0.000E+00  1.03040E+03  1.311E+00  1.200E+01  6.000E-02  1.437E+00
   1   13    7     6     5    2.7937E+01  2.2753E-03   2.7934E+01  0.000E+00  0.000E+00  0.000E+00  1.02722E+03  1.307E+00  1.200E+01  2.400E-02  3.160E-02
   1   14    9     7     1    1.5000E+02  1.3357E+00   1.4866E+02  0.000E+00  0.000E+00  0.000E+00  1.03987E+03  2.288E+00  5.529E+01  5.593E-01  7.961E-01
   1   13    8     7     2    1.4866E+02  1.8238E+00   1.4684E+02  0.000E+00  0.000E+00  0.000E+00  1.03478E+03  2.279E+00  5.526E+01  6.148E-01  9.889E-01
   1   13    7     7     3    1.4684E+02  1.4343E+00   1.4541E+02  0.000E+00  0.000E+00  0.000E+00  1.02969E+03  2.271E+00  5.522E+01  5.585E-01  8.561E-01
   1   13    6     8     1    1.7334E+02  8.8876E-01   1.7245E+02  0.000E+00  0.000E+00  0.000E+00  1.02485E+03  2.971E+00  4.309E+01  4.391E-01  6.747E-01
   1   13    5     8     2    1.7245E+02  1.3277E-01   1.7232E+02  0.000E+00  0.000E+00  0.000E+00  1.01859E+03  2.968E+00  4.304E+01  4.386E-01  1.009E-01
   1   13    4     8     3    1.7232E+02 -2.5980E+00   1.7492E+02  0.000E+00  0.000E+00  0.000E+00  1.01235E+03  2.976E+00  4.315E+01  4.397E+00 -1.969E-01
   1   13    3     8     4    1.7492E+02 -3.7026E+00   1.7862E+02  0.000E+00  0.000E+00  0.000E+00  1.00612E+03  2.996E+00  4.345E+01  4.427E+00 -2.788E-01
   1   13    2     8     5    1.7862E+02 -2.5460E+00   1.8117E+02  0.000E+00  0.000E+00  0.000E+00  9.99891E+02  3.016E+00  4.373E+01  4.456E+00 -1.904E-01
   1   13    1     8     6    1.8117E+02 -1.9301E+00   1.8310E+02  0.000E+00  0.000E+00  0.000E+00  9.94905E+02  3.030E+00  4.393E+01  2.686E+00 -2.395E-01
   1    8    6     9     1    1.1023E+01  0.0000E+00   1.1023E+01  0.000E+00  0.000E+00  0.000E+00  1.08114E+03  2.392E+00  4.000E+00  0.000E+00  1.797E+00
   1    8    5     9     2    1.1023E+01  0.0000E+00   1.1023E+01  0.000E+00  0.000E+00  0.000E+00  1.08064E+03  2.392E+00  4.000E+00  0.000E+00  1.797E+00





UNSATURATED ZONE PACKAGE VOLUMETRIC BUDGET FOR  TIME STEP    30 STRESS PERIOD   10
  ------------------------------------------------------------------------------



     CUMULATIVE VOLUMES      L**3       RATES FOR THIS TIME STEP      L**3/T
     ------------------                 ------------------------

           IN:                                      IN:
           ---                                      ---
        INFILTRATION =   504102009.1384          INFILTRATION =          15.4304

          OUT:                                     OUT:
          ----                                     ----
              UZF ET =   483789858.0872                UZF ET =          15.3315
        UZF RECHARGE =       73224.0000          UZF RECHARGE =       0.0000E+00

            IN - OUT =    20238927.0513              IN - OUT =       9.8884E-02

          STORAGE:                                 STORAGE:
          --------                                 --------
      STORAGE CHANGE =    20238921.1719        STORAGE CHANGE =       9.8884E-02

 PERCENT DISCREPANCY IS DIFFERENCE BETWEEN IN-OUT MINUS CHANGE IN STORAGE
 DIVIDED BY THE AVERAGE OF IN AND OUT TIMES 100

 PERCENT DISCREPANCY =           0.00     PERCENT DISCREPANCY =           0.00






1
  VOLUMETRIC BUDGET FOR AGRICULTURAL FIELDS AT TIME STEP   30, STRESS PERIOD  10
  ------------------------------------------------------------------------------

     CUMULATIVE VOLUMES      L**3       RATES FOR THIS TIME STEP      L**3/T
     ------------------                 ------------------------

           IN:                                      IN:
           ---                                      ---
               AG WELLS  =    44249552.0000                 AG WELLS  =           0.0000
      DIVERSION SEGMENTS =   355446592.0000        DIVERSION SEGMENTS =          11.0226
           GW IRRIGATION =           0.0000             GW IRRIGATION =           0.0000
           SW IRRIGATION =           0.0000             SW IRRIGATION =           0.0000
        SYSTEM LOSSES GW =           0.0000          SYSTEM LOSSES GW =           0.0000
        SYSTEM LOSSES SW =           0.0000          SYSTEM LOSSES SW =           0.0000

                TOTAL IN =   399696128.0000                  TOTAL IN =          11.0226

          OUT:                                     OUT:
          ----                                     ----
               AG WELLS  =           0.0000                 AG WELLS  =           0.0000
      DIVERSION SEGMENTS =           0.0000        DIVERSION SEGMENTS =           0.0000
           GW IRRIGATION =    44249552.0000             GW IRRIGATION =           0.0000
           SW IRRIGATION =   355453760.0000             SW IRRIGATION =          11.0229
        SYSTEM LOSSES GW =           0.0000          SYSTEM LOSSES GW =           0.0000
        SYSTEM LOSSES SW =           0.0000          SYSTEM LOSSES SW =           0.0000

               TOTAL OUT =   399703296.0000                 TOTAL OUT =          11.0229

                IN - OUT =       -7168.0000                  IN - OUT =      -2.2030E-04

     PERCENT DISCREPANCY =          -0.00         PERCENT DISCREPANCY =          -0.00



1
  VOLUMETRIC BUDGET FOR ENTIRE MODEL AT END OF TIME STEP   30, STRESS PERIOD  10
  ------------------------------------------------------------------------------

     CUMULATIVE VOLUMES      L**3       RATES FOR THIS TIME STEP      L**3/T
     ------------------                 ------------------------

           IN:                                      IN:
           ---                                      ---
             STORAGE     =    68437808.0000               STORAGE     =           1.9813
       CONSTANT HEAD     =           0.0000         CONSTANT HEAD     =           0.0000
     HEAD DEP BOUNDS     =     6787967.5000       HEAD DEP BOUNDS     =           0.2858
      STREAM LEAKAGE     =   288818592.0000        STREAM LEAKAGE     =          11.9081
        UZF RECHARGE     =       73223.9531          UZF RECHARGE     =           0.0000
               GW ET     =           0.0000                 GW ET     =           0.0000
     SURFACE LEAKAGE     =           0.0000       SURFACE LEAKAGE     =           0.0000
           AG WELLS      =           0.0000             AG WELLS      =           0.0000

                TOTAL IN =   364117568.0000                  TOTAL IN =          14.1751

          OUT:                                     OUT:
          ----                                     ----
             STORAGE     =    54912880.0000               STORAGE     =           3.1076
       CONSTANT HEAD     =           0.0000         CONSTANT HEAD     =           0.0000
     HEAD DEP BOUNDS     =     6914160.0000       HEAD DEP BOUNDS     =           0.2897
      STREAM LEAKAGE     =   256493536.0000        STREAM LEAKAGE     =          10.7767
        UZF RECHARGE     =           0.0000          UZF RECHARGE     =           0.0000
               GW ET     =     1532013.0000                 GW ET     =           0.0000
     SURFACE LEAKAGE     =           0.0000       SURFACE LEAKAGE     =           0.0000
           AG WELLS      =    44249552.0000             AG WELLS      =           0.0000

               TOTAL OUT =   364102144.0000                 TOTAL OUT =          14.1739

                IN - OUT =       15424.0000                  IN - OUT =       1.2007E-03

     PERCENT DISCREPANCY =           0.00         PERCENT DISCREPANCY =           0.01






         TIME SUMMARY AT END OF TIME STEP   30 IN STRESS PERIOD   10
                    SECONDS     MINUTES      HOURS       DAYS        YEARS
                    -----------------------------------------------------------
   TIME STEP LENGTH  87667.      1461.1      24.352      1.0147     2.77799E-03
 STRESS PERIOD TIME 2.63000E+06  43833.      730.56      30.440     8.33397E-02
         TOTAL TIME 2.37564E+07 3.95940E+05  6599.0      274.96     0.75279    
1
1
                            STRESS PERIOD NO.   11, LENGTH =   2630000.    
                            -----------------------------------------------

                              NUMBER OF TIME STEPS =    30

                               MULTIPLIER FOR DELT =     1.000

                            INITIAL TIME STEP SIZE =   87666.66    

 REUSING NON-PARAMETER GHB CELLS FROM LAST STRESS PERIOD

      2 GHB CELLS

 REUSING STREAM SEGMENT DATA FROM LAST STRESS PERIOD



            AREAL INFILTRATION RATE
 READING ON UNIT   19 WITH FORMAT: (10F4.0)            

            1           2           3           4           5           6           7           8           9          10
 ........................................................................................................................
   1   1.2000E-09   0.000       0.000       0.000       0.000       0.000       0.000       0.000       0.000       0.000    
   2   2.1000E-09  2.0000E-09  8.0000E-10  8.5000E-09   0.000       0.000       0.000       0.000       0.000       0.000    
   3   5.0000E-10  1.1000E-09  8.8000E-09  5.5000E-09   0.000       0.000       0.000       0.000       0.000       0.000    
   4   8.5000E-09  1.1000E-09  1.1000E-09  1.1000E-09  2.0000E-09   0.000       0.000       0.000       0.000       0.000    
   5   8.5000E-09  1.1000E-09  1.1000E-09  1.1000E-09  1.1000E-09   0.000       0.000       0.000       0.000       0.000    
   6   8.5000E-09  5.2000E-09  2.1000E-09  1.1000E-09  1.5000E-09   0.000       0.000       0.000       0.000       0.000    
   7   8.5000E-09  5.2000E-09  2.1000E-09  1.2000E-09  2.0000E-09   0.000       0.000       0.000       0.000       0.000    
   8   5.0000E-10  5.2000E-09  2.1000E-09  1.2000E-09  5.0000E-09   0.000       0.000       0.000       0.000       0.000    
   9   5.0000E-10  5.2000E-09  2.1000E-09  1.2000E-09  5.0000E-09   0.000       0.000       0.000       0.000       0.000    
  10   5.0000E-10  5.2000E-09  2.1000E-09  1.2000E-09  5.8000E-09   0.000       0.000       0.000       0.000       0.000    
  11   1.0000E-10  1.1000E-09  1.1000E-09  1.2000E-09  5.0000E-09   0.000       0.000       0.000       0.000       0.000    
  12   1.1000E-09  1.1000E-09  1.1000E-09  1.1000E-09  2.0000E-09   0.000       0.000       0.000       0.000       0.000    
  13   1.1000E-09  2.2000E-09  2.2000E-09  2.1000E-09  1.0000E-09   0.000       0.000       0.000       0.000       0.000    
  14   2.0000E-10  5.5000E-09  5.5000E-09  5.2000E-09  1.0000E-09   0.000       0.000       0.000       0.000       0.000    
  15    0.000      8.8000E-09  8.8000E-09   0.000       0.000       0.000       0.000       0.000       0.000       0.000    

                  ET RATE =  5.000000E-09

 USING ET EXTINCTION DEPTH FROM PREVIOUS STRESS PERIOD. CURRENT PERIOD IS:      11

 USING EXTINCTION WATER CONTENT FROM PREVIOUS STRESS PERIOD. CURRENT PERIOD IS:      11

 USING AIR ENTRY PRESSURE FROM PREVIOUS STRESS PERIOD. CURRENT PERIOD IS:      11

 USING ROOT PRESSURE HEAD FROM PREVIOUS STRESS PERIOD. CURRENT PERIOD IS:      11

 USING ROOT ACTIVITY FROM PREVIOUS STRESS PERIOD. CURRENT PERIOD IS:      11

 PROCESSING AG STRESS PERIOD DATA

 READING AG STRESS PERIOD DATA

 READING IRRIGATION SEGMENT

 READING IRRIGATION WELL

 READING SUPPLEMENTAL WELL

 END PROCESSING AG STRESS PERIOD DATA OPTIONS
 
 SOLVING FOR HEAD 
                                                   Max.-Head-Change                         Max.-Flux-Residual
  Residual-Control   Outer-Iter.   Inner-Iter.     Column Row Layer    Maximum-Head-Change  Column Row Layer    Maximum-Flux-Residual          L2-NORM 
          0                 1           2             4    7     1       0.9072453833E-02       4    7    1         0.4780144184E+00      0.1069294747E+01
          0                 2           2             4    7     1      -0.8825036584E-03       4    7    1        -0.4780152923E-01      0.1066498660E+00
          0                 3           1             4    7     1       0.6009521448E-04       4    7    1         0.3346107672E-02      0.7439499503E-02

    ------------------------------------------------
       NWT REQUIRED            3 OUTER ITERATIONS 
       AND A TOTAL OF          5 INNER ITERATIONS.
    ------------------------------------------------

 NO OUTPUT CONTROL FOR STRESS PERIOD   11   TIME STEP    1
 
 SOLVING FOR HEAD 
                                                   Max.-Head-Change                         Max.-Flux-Residual
  Residual-Control   Outer-Iter.   Inner-Iter.     Column Row Layer    Maximum-Head-Change  Column Row Layer    Maximum-Flux-Residual          L2-NORM 
          0                 1           2             4    7     1       0.8945838161E-02       4    7    1         0.4714045402E+00      0.1009891327E+01
          0                 2           2             4    7     1      -0.8701873971E-03       4    7    1        -0.4714054088E-01      0.1009398568E+00
          0                 3           1             4    7     1       0.5925652275E-04       4    7    1         0.3299838471E-02      0.7061212342E-02

    ------------------------------------------------
       NWT REQUIRED            3 OUTER ITERATIONS 
       AND A TOTAL OF          5 INNER ITERATIONS.
    ------------------------------------------------

 NO OUTPUT CONTROL FOR STRESS PERIOD   11   TIME STEP    2
 
 SOLVING FOR HEAD 
                                                   Max.-Head-Change                         Max.-Flux-Residual
  Residual-Control   Outer-Iter.   Inner-Iter.     Column Row Layer    Maximum-Head-Change  Column Row Layer    Maximum-Flux-Residual          L2-NORM 
          0                 1           2             4    7     1       0.8819927879E-02       4    7    1         0.4648248384E+00      0.9911239752E+00
          0                 2           2             4    7     1      -0.8579397497E-03       4    7    1        -0.4648257003E-01      0.9906883796E-01
          0                 3           1             4    7     1       0.5842250365E-04       4    7    1         0.3253780506E-02      0.6930757035E-02

    ------------------------------------------------
       NWT REQUIRED            3 OUTER ITERATIONS 
       AND A TOTAL OF          5 INNER ITERATIONS.
    ------------------------------------------------

 NO OUTPUT CONTROL FOR STRESS PERIOD   11   TIME STEP    3
 
 SOLVING FOR HEAD 
                                                   Max.-Head-Change                         Max.-Flux-Residual
  Residual-Control   Outer-Iter.   Inner-Iter.     Column Row Layer    Maximum-Head-Change  Column Row Layer    Maximum-Flux-Residual          L2-NORM 
          0                 1           2             4    7     1       0.8694560478E-02       4    7    1         0.4582669108E+00      0.9730328773E+00
          0                 2           2             4    7     1      -0.8457449070E-03       4    7    1        -0.4582677644E-01      0.9726492258E-01
          0                 3           1             4    7     1       0.5759208033E-04       4    7    1         0.3207874927E-02      0.6804892681E-02

    ------------------------------------------------
       NWT REQUIRED            3 OUTER ITERATIONS 
       AND A TOTAL OF          5 INNER ITERATIONS.
    ------------------------------------------------

 NO OUTPUT CONTROL FOR STRESS PERIOD   11   TIME STEP    4
 
 SOLVING FOR HEAD 
                                                   Max.-Head-Change                         Max.-Flux-Residual
  Residual-Control   Outer-Iter.   Inner-Iter.     Column Row Layer    Maximum-Head-Change  Column Row Layer    Maximum-Flux-Residual          L2-NORM 
          0                 1           2             4    7     1       0.8570387799E-02       4    7    1         0.4517667341E+00      0.9555691235E+00
          0                 2           2             4    7     1      -0.8336662776E-03       4    7    1        -0.4517675785E-01      0.9552316746E-01
          0                 3           1             4    7     1       0.5676957066E-04       4    7    1         0.3162373629E-02      0.6683524305E-02

    ------------------------------------------------
       NWT REQUIRED            3 OUTER ITERATIONS 
       AND A TOTAL OF          5 INNER ITERATIONS.
    ------------------------------------------------

 NO OUTPUT CONTROL FOR STRESS PERIOD   11   TIME STEP    5
 
 SOLVING FOR HEAD 
                                                   Max.-Head-Change                         Max.-Flux-Residual
  Residual-Control   Outer-Iter.   Inner-Iter.     Column Row Layer    Maximum-Head-Change  Column Row Layer    Maximum-Flux-Residual          L2-NORM 
          0                 1           2             4    7     1       0.8447211266E-02       4    7    1         0.4453137025E+00      0.9387031037E+00
          0                 2           2             4    7     1      -0.8216845435E-03       4    7    1        -0.4453145364E-01      0.9384051587E-01
          0                 3           1             4    7     1       0.5595365896E-04       4    7    1         0.3117202298E-02      0.6566150238E-02

    ------------------------------------------------
       NWT REQUIRED            3 OUTER ITERATIONS 
       AND A TOTAL OF          5 INNER ITERATIONS.
    ------------------------------------------------

 NO OUTPUT CONTROL FOR STRESS PERIOD   11   TIME STEP    6
 
 SOLVING FOR HEAD 
                                                   Max.-Head-Change                         Max.-Flux-Residual
  Residual-Control   Outer-Iter.   Inner-Iter.     Column Row Layer    Maximum-Head-Change  Column Row Layer    Maximum-Flux-Residual          L2-NORM 
          0                 1           2             4    7     1       0.8325110672E-02       4    7    1         0.4389123209E+00      0.9224039017E+00
          0                 2           2             4    7     1      -0.8098074678E-03       4    7    1        -0.4389131433E-01      0.9221416061E-01
          0                 3           1             4    7     1       0.5514487444E-04       4    7    1         0.3072392549E-02      0.6452678537E-02

    ------------------------------------------------
       NWT REQUIRED            3 OUTER ITERATIONS 
       AND A TOTAL OF          5 INNER ITERATIONS.
    ------------------------------------------------

 NO OUTPUT CONTROL FOR STRESS PERIOD   11   TIME STEP    7
 
 SOLVING FOR HEAD 
                                                   Max.-Head-Change                         Max.-Flux-Residual
  Residual-Control   Outer-Iter.   Inner-Iter.     Column Row Layer    Maximum-Head-Change  Column Row Layer    Maximum-Flux-Residual          L2-NORM 
          0                 1           2             4    7     1       0.8204163526E-02       4    7    1         0.4325667265E+00      0.9066446058E+00
          0                 2           2             4    7     1      -0.7980425904E-03       4    7    1        -0.4325675366E-01      0.9064128076E-01
          0                 3           1             4    7     1       0.5434372997E-04       4    7    1         0.3027973305E-02      0.6342754714E-02

    ------------------------------------------------
       NWT REQUIRED            3 OUTER ITERATIONS 
       AND A TOTAL OF          5 INNER ITERATIONS.
    ------------------------------------------------

 NO OUTPUT CONTROL FOR STRESS PERIOD   11   TIME STEP    8
 
 SOLVING FOR HEAD 
                                                   Max.-Head-Change                         Max.-Flux-Residual
  Residual-Control   Outer-Iter.   Inner-Iter.     Column Row Layer    Maximum-Head-Change  Column Row Layer    Maximum-Flux-Residual          L2-NORM 
          0                 1           2             4    7     1       0.8084430460E-02       4    7    1         0.4262809381E+00      0.8913819411E+00
          0                 2           2             4    7     1      -0.7863958090E-03       4    7    1        -0.4262817356E-01      0.8911763177E-01
          0                 3           1             4    7     1       0.5355062766E-04       4    7    1         0.2983972684E-02      0.6236313187E-02

    ------------------------------------------------
       NWT REQUIRED            3 OUTER ITERATIONS 
       AND A TOTAL OF          5 INNER ITERATIONS.
    ------------------------------------------------

 NO OUTPUT CONTROL FOR STRESS PERIOD   11   TIME STEP    9
 
 SOLVING FOR HEAD 
                                                   Max.-Head-Change                         Max.-Flux-Residual
  Residual-Control   Outer-Iter.   Inner-Iter.     Column Row Layer    Maximum-Head-Change  Column Row Layer    Maximum-Flux-Residual          L2-NORM 
          0                 1           2             4    7     1       0.7965970920E-02       4    7    1         0.4200580990E+00      0.8766050977E+00
          0                 2           2             4    7     1      -0.7748729051E-03       4    7    1        -0.4200588827E-01      0.8764229155E-01
          0                 3           1             4    7     1       0.5276596063E-04       4    7    1         0.2940412699E-02      0.6133320685E-02

    ------------------------------------------------
       NWT REQUIRED            3 OUTER ITERATIONS 
       AND A TOTAL OF          5 INNER ITERATIONS.
    ------------------------------------------------

 NO OUTPUT CONTROL FOR STRESS PERIOD   11   TIME STEP   10
 
 SOLVING FOR HEAD 
                                                   Max.-Head-Change                         Max.-Flux-Residual
  Residual-Control   Outer-Iter.   Inner-Iter.     Column Row Layer    Maximum-Head-Change  Column Row Layer    Maximum-Flux-Residual          L2-NORM 
          0                 1           2             4    7     1       0.7849098693E-02       4    7    1         0.4139160944E+00      0.8622730866E+00
          0                 2           2             4    7     1      -0.7635044040E-03       4    7    1        -0.4139168645E-01      0.8621125333E-01
          0                 3           1             4    7     1       0.5199180803E-04       4    7    1         0.2897418564E-02      0.6033333528E-02

    ------------------------------------------------
       NWT REQUIRED            3 OUTER ITERATIONS 
       AND A TOTAL OF          5 INNER ITERATIONS.
    ------------------------------------------------

 NO OUTPUT CONTROL FOR STRESS PERIOD   11   TIME STEP   11
 
 SOLVING FOR HEAD 
                                                   Max.-Head-Change                         Max.-Flux-Residual
  Residual-Control   Outer-Iter.   Inner-Iter.     Column Row Layer    Maximum-Head-Change  Column Row Layer    Maximum-Flux-Residual          L2-NORM 
          0                 1           2             4    7     1       0.7733302173E-02       4    7    1         0.4078267849E+00      0.8483757654E+00
          0                 2           2             4    7     1      -0.7522405391E-03       4    7    1        -0.4078275407E-01      0.8482333504E-01
          0                 3           1             4    7     1       0.5122478096E-04       4    7    1         0.2854793314E-02      0.5936345743E-02

    ------------------------------------------------
       NWT REQUIRED            3 OUTER ITERATIONS 
       AND A TOTAL OF          5 INNER ITERATIONS.
    ------------------------------------------------

 NO OUTPUT CONTROL FOR STRESS PERIOD   11   TIME STEP   12
 
 SOLVING FOR HEAD 
                                                   Max.-Head-Change                         Max.-Flux-Residual
  Residual-Control   Outer-Iter.   Inner-Iter.     Column Row Layer    Maximum-Head-Change  Column Row Layer    Maximum-Flux-Residual          L2-NORM 
          0                 1           2             4    7     1       0.7619174920E-02       4    7    1         0.4018228564E+00      0.8348860139E+00
          0                 2           2             4    7     1      -0.7411390476E-03       4    7    1        -0.4018235975E-01      0.8347589106E-01
          0                 3           1             4    7     1       0.5046881080E-04       4    7    1         0.2812765706E-02      0.5842191065E-02

    ------------------------------------------------
       NWT REQUIRED            3 OUTER ITERATIONS 
       AND A TOTAL OF          5 INNER ITERATIONS.
    ------------------------------------------------

 NO OUTPUT CONTROL FOR STRESS PERIOD   11   TIME STEP   13
 
 SOLVING FOR HEAD 
                                                   Max.-Head-Change                         Max.-Flux-Residual
  Residual-Control   Outer-Iter.   Inner-Iter.     Column Row Layer    Maximum-Head-Change  Column Row Layer    Maximum-Flux-Residual          L2-NORM 
          0                 1           2             4    7     1       0.7506193784E-02       4    7    1         0.3958758713E+00      0.8217842132E+00
          0                 2           2             4    7     1      -0.7301490417E-03       4    7    1        -0.3958765976E-01      0.8216722162E-01
          0                 3           1             4    7     1       0.4972043216E-04       4    7    1         0.2771136682E-02      0.5750594578E-02

    ------------------------------------------------
       NWT REQUIRED            3 OUTER ITERATIONS 
       AND A TOTAL OF          5 INNER ITERATIONS.
    ------------------------------------------------

 NO OUTPUT CONTROL FOR STRESS PERIOD   11   TIME STEP   14
 
 SOLVING FOR HEAD 
                                                   Max.-Head-Change                         Max.-Flux-Residual
  Residual-Control   Outer-Iter.   Inner-Iter.     Column Row Layer    Maximum-Head-Change  Column Row Layer    Maximum-Flux-Residual          L2-NORM 
          0                 1           2             4    7     1       0.7394944369E-02       4    7    1         0.3900179187E+00      0.8090616822E+00
          0                 2           2             4    7     1      -0.7193274848E-03       4    7    1        -0.3900186299E-01      0.8089620511E-01
          0                 3           1             4    7     1       0.4898352484E-04       4    7    1         0.2730130915E-02      0.5661850603E-02

    ------------------------------------------------
       NWT REQUIRED            3 OUTER ITERATIONS 
       AND A TOTAL OF          5 INNER ITERATIONS.
    ------------------------------------------------

 NO OUTPUT CONTROL FOR STRESS PERIOD   11   TIME STEP   15
 
 SOLVING FOR HEAD 
                                                   Max.-Head-Change                         Max.-Flux-Residual
  Residual-Control   Outer-Iter.   Inner-Iter.     Column Row Layer    Maximum-Head-Change  Column Row Layer    Maximum-Flux-Residual          L2-NORM 
          0                 1           2             4    7     1       0.7285159055E-02       4    7    1         0.3842349506E+00      0.7966926583E+00
          0                 2           2             4    7     1      -0.7086483454E-03       4    7    1        -0.3842356470E-01      0.7966040805E-01
          0                 3           1             4    7     1       0.4825631497E-04       4    7    1         0.2689650035E-02      0.5575419737E-02

    ------------------------------------------------
       NWT REQUIRED            3 OUTER ITERATIONS 
       AND A TOTAL OF          5 INNER ITERATIONS.
    ------------------------------------------------

 NO OUTPUT CONTROL FOR STRESS PERIOD   11   TIME STEP   16
 
 SOLVING FOR HEAD 
                                                   Max.-Head-Change                         Max.-Flux-Residual
  Residual-Control   Outer-Iter.   Inner-Iter.     Column Row Layer    Maximum-Head-Change  Column Row Layer    Maximum-Flux-Residual          L2-NORM 
          0                 1           2             4    7     1       0.7177132179E-02       4    7    1         0.3785426990E+00      0.7846705476E+00
          0                 2           2             4    7     1      -0.6981402534E-03       4    7    1        -0.3785433800E-01      0.7845898542E-01
          0                 3           1             4    7     1       0.4754075345E-04       4    7    1         0.2649804176E-02      0.5491337604E-02

    ------------------------------------------------
       NWT REQUIRED            3 OUTER ITERATIONS 
       AND A TOTAL OF          5 INNER ITERATIONS.
    ------------------------------------------------

 NO OUTPUT CONTROL FOR STRESS PERIOD   11   TIME STEP   17
 
 SOLVING FOR HEAD 
                                                   Max.-Head-Change                         Max.-Flux-Residual
  Residual-Control   Outer-Iter.   Inner-Iter.     Column Row Layer    Maximum-Head-Change  Column Row Layer    Maximum-Flux-Residual          L2-NORM 
          0                 1           2             4    7     1       0.7070315717E-02       4    7    1         0.3729120122E+00      0.7729614946E+00
          0                 2           2             4    7     1      -0.6877499022E-03       4    7    1        -0.3729126785E-01      0.7728905504E-01
          0                 3           1             4    7     1       0.4683320877E-04       4    7    1         0.2610389230E-02      0.5409587626E-02

    ------------------------------------------------
       NWT REQUIRED            3 OUTER ITERATIONS 
       AND A TOTAL OF          5 INNER ITERATIONS.
    ------------------------------------------------

 NO OUTPUT CONTROL FOR STRESS PERIOD   11   TIME STEP   18
 
 SOLVING FOR HEAD 
                                                   Max.-Head-Change                         Max.-Flux-Residual
  Residual-Control   Outer-Iter.   Inner-Iter.     Column Row Layer    Maximum-Head-Change  Column Row Layer    Maximum-Flux-Residual          L2-NORM 
          0                 1           2             4    7     1       0.6965283163E-02       4    7    1         0.3673736931E+00      0.7615749889E+00
          0                 2           2             4    7     1      -0.6775330768E-03       4    7    1        -0.3673743444E-01      0.7615120010E-01
          0                 3           1             4    7     1       0.4613748118E-04       4    7    1         0.2571620902E-02      0.5330012319E-02

    ------------------------------------------------
       NWT REQUIRED            3 OUTER ITERATIONS 
       AND A TOTAL OF          5 INNER ITERATIONS.
    ------------------------------------------------

 NO OUTPUT CONTROL FOR STRESS PERIOD   11   TIME STEP   19
 
 SOLVING FOR HEAD 
                                                   Max.-Head-Change                         Max.-Flux-Residual
  Residual-Control   Outer-Iter.   Inner-Iter.     Column Row Layer    Maximum-Head-Change  Column Row Layer    Maximum-Flux-Residual          L2-NORM 
          0                 1           2             4    7     1       0.6861749240E-02       4    7    1         0.3619130633E+00      0.7504825906E+00
          0                 2           2             4    7     1      -0.6674620270E-03       4    7    1        -0.3619136996E-01      0.7504263566E-01
          0                 3           1             4    7     1       0.4545168061E-04       4    7    1         0.2533396388E-02      0.5252418144E-02

    ------------------------------------------------
       NWT REQUIRED            3 OUTER ITERATIONS 
       AND A TOTAL OF          5 INNER ITERATIONS.
    ------------------------------------------------

 NO OUTPUT CONTROL FOR STRESS PERIOD   11   TIME STEP   20
 
 SOLVING FOR HEAD 
                                                   Max.-Head-Change                         Max.-Flux-Residual
  Residual-Control   Outer-Iter.   Inner-Iter.     Column Row Layer    Maximum-Head-Change  Column Row Layer    Maximum-Flux-Residual          L2-NORM 
          0                 1           2             4    7     1       0.6759732227E-02       4    7    1         0.3565301359E+00      0.7396983028E+00
          0                 2           2             4    7     1      -0.6575385312E-03       4    7    1        -0.3565307572E-01      0.7396488669E-01
          0                 3           1             4    7     1       0.4477592754E-04       4    7    1         0.2495715787E-02      0.5177100540E-02

    ------------------------------------------------
       NWT REQUIRED            3 OUTER ITERATIONS 
       AND A TOTAL OF          5 INNER ITERATIONS.
    ------------------------------------------------

 NO OUTPUT CONTROL FOR STRESS PERIOD   11   TIME STEP   21
 
 SOLVING FOR HEAD 
                                                   Max.-Head-Change                         Max.-Flux-Residual
  Residual-Control   Outer-Iter.   Inner-Iter.     Column Row Layer    Maximum-Head-Change  Column Row Layer    Maximum-Flux-Residual          L2-NORM 
          0                 1           2             4    7     1       0.6659219307E-02       4    7    1         0.3512258589E+00      0.7291616294E+00
          0                 2           2             4    7     1      -0.6477613434E-03       4    7    1        -0.3512264655E-01      0.7291165035E-01
          0                 3           1             4    7     1       0.4411013746E-04       4    7    1         0.2458585748E-02      0.5103400432E-02

    ------------------------------------------------
       NWT REQUIRED            3 OUTER ITERATIONS 
       AND A TOTAL OF          5 INNER ITERATIONS.
    ------------------------------------------------

 NO OUTPUT CONTROL FOR STRESS PERIOD   11   TIME STEP   22
 
 SOLVING FOR HEAD 
                                                   Max.-Head-Change                         Max.-Flux-Residual
  Residual-Control   Outer-Iter.   Inner-Iter.     Column Row Layer    Maximum-Head-Change  Column Row Layer    Maximum-Flux-Residual          L2-NORM 
          0                 1           2             4    7     1       0.6560490428E-02       4    7    1         0.3460143728E+00      0.7189083798E+00
          0                 2           2             4    7     1      -0.6381576943E-03       4    7    1        -0.3460149650E-01      0.7188682527E-01
          0                 3           1             4    7     1       0.4345616495E-04       4    7    1         0.2422105253E-02      0.5031686444E-02

    ------------------------------------------------
       NWT REQUIRED            3 OUTER ITERATIONS 
       AND A TOTAL OF          5 INNER ITERATIONS.
    ------------------------------------------------

 NO OUTPUT CONTROL FOR STRESS PERIOD   11   TIME STEP   23
 
 SOLVING FOR HEAD 
                                                   Max.-Head-Change                         Max.-Flux-Residual
  Residual-Control   Outer-Iter.   Inner-Iter.     Column Row Layer    Maximum-Head-Change  Column Row Layer    Maximum-Flux-Residual          L2-NORM 
          0                 1           2             4    7     1       0.6463256118E-02       4    7    1         0.3408805820E+00      0.7089132241E+00
          0                 2           2             4    7     1      -0.6286994254E-03       4    7    1        -0.3408811595E-01      0.7088773879E-01
          0                 3           1             4    7     1       0.4281209178E-04       4    7    1         0.2386168581E-02      0.4961854686E-02

    ------------------------------------------------
       NWT REQUIRED            3 OUTER ITERATIONS 
       AND A TOTAL OF          5 INNER ITERATIONS.
    ------------------------------------------------

 NO OUTPUT CONTROL FOR STRESS PERIOD   11   TIME STEP   24
 
 SOLVING FOR HEAD 
                                                   Max.-Head-Change                         Max.-Flux-Residual
  Residual-Control   Outer-Iter.   Inner-Iter.     Column Row Layer    Maximum-Head-Change  Column Row Layer    Maximum-Flux-Residual          L2-NORM 
          0                 1           2             4    7     1       0.6367514456E-02       4    7    1         0.3358242829E+00      0.6991679085E+00
          0                 2           2             4    7     1      -0.6193863516E-03       4    7    1        -0.3358248464E-01      0.6991361341E-01
          0                 3           1             4    7     1       0.4217790610E-04       4    7    1         0.2350774399E-02      0.4893666312E-02

    ------------------------------------------------
       NWT REQUIRED            3 OUTER ITERATIONS 
       AND A TOTAL OF          5 INNER ITERATIONS.
    ------------------------------------------------

 NO OUTPUT CONTROL FOR STRESS PERIOD   11   TIME STEP   25
 
 SOLVING FOR HEAD 
                                                   Max.-Head-Change                         Max.-Flux-Residual
  Residual-Control   Outer-Iter.   Inner-Iter.     Column Row Layer    Maximum-Head-Change  Column Row Layer    Maximum-Flux-Residual          L2-NORM 
          0                 1           2             4    7     1       0.6273255224E-02       4    7    1         0.3308453760E+00      0.6896566270E+00
          0                 2           2             4    7     1      -0.6102392872E-03       4    7    1        -0.3308459256E-01      0.6900501445E-01
          0                 3           1             4    7     1       0.4155502536E-04       4    7    1         0.2315921970E-02      0.4830045615E-02

    ------------------------------------------------
       NWT REQUIRED            3 OUTER ITERATIONS 
       AND A TOTAL OF          5 INNER ITERATIONS.
    ------------------------------------------------

 NO OUTPUT CONTROL FOR STRESS PERIOD   11   TIME STEP   26
 
 SOLVING FOR HEAD 
                                                   Max.-Head-Change                         Max.-Flux-Residual
  Residual-Control   Outer-Iter.   Inner-Iter.     Column Row Layer    Maximum-Head-Change  Column Row Layer    Maximum-Flux-Residual          L2-NORM 
          0                 1           2             4    7     1       0.6180660839E-02       4    7    1         0.3259569785E+00      0.6803474047E+00
          0                 2           2             4    7     1      -0.6012105543E-03       4    7    1        -0.3259575148E-01      0.6803208866E-01
          0                 3           1             4    7     1       0.4094020240E-04       4    7    1         0.2281703095E-02      0.4761936187E-02

    ------------------------------------------------
       NWT REQUIRED            3 OUTER ITERATIONS 
       AND A TOTAL OF          5 INNER ITERATIONS.
    ------------------------------------------------

 NO OUTPUT CONTROL FOR STRESS PERIOD   11   TIME STEP   27
 
 SOLVING FOR HEAD 
                                                   Max.-Head-Change                         Max.-Flux-Residual
  Residual-Control   Outer-Iter.   Inner-Iter.     Column Row Layer    Maximum-Head-Change  Column Row Layer    Maximum-Flux-Residual          L2-NORM 
          0                 1           2             4    7     1       0.6089504241E-02       4    7    1         0.3211424123E+00      0.6712287126E+00
          0                 2           2             4    7     1      -0.5923434831E-03       4    7    1        -0.3211429353E-01      0.6712060502E-01
          0                 3           1             4    7     1       0.4033638806E-04       4    7    1         0.2248001024E-02      0.4698239259E-02

    ------------------------------------------------
       NWT REQUIRED            3 OUTER ITERATIONS 
       AND A TOTAL OF          5 INNER ITERATIONS.
    ------------------------------------------------

 NO OUTPUT CONTROL FOR STRESS PERIOD   11   TIME STEP   28
 
 SOLVING FOR HEAD 
                                                   Max.-Head-Change                         Max.-Flux-Residual
  Residual-Control   Outer-Iter.   Inner-Iter.     Column Row Layer    Maximum-Head-Change  Column Row Layer    Maximum-Flux-Residual          L2-NORM 
          0                 1           2             4    7     1       0.5999762678E-02       4    7    1         0.3164012351E+00      0.6623296320E+00
          0                 2           2             4    7     1      -0.5836140568E-03       4    7    1        -0.3164017453E-01      0.6623088533E-01
          0                 3           1             4    7     1       0.3974194622E-04       4    7    1         0.2214812692E-02      0.4635968117E-02

    ------------------------------------------------
       NWT REQUIRED            3 OUTER ITERATIONS 
       AND A TOTAL OF          5 INNER ITERATIONS.
    ------------------------------------------------

 NO OUTPUT CONTROL FOR STRESS PERIOD   11   TIME STEP   29
 
 SOLVING FOR HEAD 
                                                   Max.-Head-Change                         Max.-Flux-Residual
  Residual-Control   Outer-Iter.   Inner-Iter.     Column Row Layer    Maximum-Head-Change  Column Row Layer    Maximum-Flux-Residual          L2-NORM 
          0                 1           2             4    7     1       0.5911692669E-02       4    7    1         0.3117482328E+00      0.6536383120E+00
          0                 2           2             4    7     1      -0.5750472272E-03       4    7    1        -0.3117487300E-01      0.6536198115E-01
          0                 3           1             4    7     1       0.3915857737E-04       4    7    1         0.2182241580E-02      0.4575140328E-02

    ------------------------------------------------
       NWT REQUIRED            3 OUTER ITERATIONS 
       AND A TOTAL OF          5 INNER ITERATIONS.
    ------------------------------------------------

 NO OUTPUT CONTROL FOR STRESS PERIOD   11   TIME STEP   30



 STREAM LISTING     PERIOD     11   STEP       30

 LAYER ROW COL. STREAM  RCH.  FLOW INTO     FLOW TO   FLOW OUT OF   OVRLND.     DIRECT     STREAM       STREAM     STREAM     STREAM   STREAMBED  STREAMBED
                SEG.NO.  NO.  STRM. RCH.    AQUIFER    STRM. RCH.    RUNOFF     PRECIP       ET          HEAD       DEPTH      WIDTH   CONDCTNC.   GRADIENT

   1    1    1     1     1    2.6250E+01  2.5084E-01   2.5999E+01  0.000E+00  0.000E+00  0.000E+00  1.09424E+03  1.197E+00  1.328E+01  5.977E-02  1.399E+00
   1    2    2     1     2    2.5999E+01  3.8795E-01   2.5611E+01  0.000E+00  0.000E+00  0.000E+00  1.08925E+03  1.192E+00  1.322E+01  9.255E-02  1.397E+00
   1    3    3     1     3    2.5611E+01  3.3035E-01   2.5281E+01  0.000E+00  0.000E+00  0.000E+00  1.08361E+03  1.187E+00  1.315E+01  7.890E-02  1.396E+00
   1    3    4     1     4    2.5281E+01  3.0378E-01   2.4977E+01  0.000E+00  0.000E+00  0.000E+00  1.07859E+03  1.182E+00  1.309E+01  7.264E-02  1.394E+00
   1    4    5     2     1    2.2977E+01  3.2316E-01   2.2654E+01  0.000E+00  0.000E+00  0.000E+00  1.07308E+03  1.143E+00  1.200E+01  7.800E-02  1.381E+00
   1    5    6     2     2    2.2654E+01  2.4807E-01   2.2406E+01  0.000E+00  0.000E+00  0.000E+00  1.06764E+03  1.134E+00  1.200E+01  6.000E-02  1.378E+00
   1    6    6     2     3    2.2406E+01  2.4762E-01   2.2158E+01  0.000E+00  0.000E+00  0.000E+00  1.06292E+03  1.127E+00  1.200E+01  6.000E-02  1.376E+00
   1    7    6     2     4    2.2158E+01  2.4717E-01   2.1911E+01  0.000E+00  0.000E+00  0.000E+00  1.05819E+03  1.119E+00  1.200E+01  6.000E-02  1.373E+00
   1    8    6     2     5    2.1911E+01  2.4671E-01   2.1664E+01  0.000E+00  0.000E+00  0.000E+00  1.05347E+03  1.112E+00  1.200E+01  6.000E-02  1.371E+00
   1    3    5     3     1    2.0000E+00  2.8252E-01   1.7175E+00  0.000E+00  0.000E+00  0.000E+00  1.07555E+03  1.909E+00  9.636E+00  7.227E-02  1.955E+00
   1    3    6     3     2    1.7175E+00  2.4905E-01   1.4684E+00  0.000E+00  0.000E+00  0.000E+00  1.07264E+03  1.727E+00  8.909E+00  6.682E-02  1.864E+00
   1    3    7     3     3    1.4684E+00  1.9718E-01   1.2712E+00  0.000E+00  0.000E+00  0.000E+00  1.06987E+03  1.555E+00  8.218E+00  5.547E-02  1.777E+00
   1    4    8     3     4    1.2712E+00  2.2567E-01   1.0456E+00  0.000E+00  0.000E+00  0.000E+00  1.06682E+03  1.364E+00  7.455E+00  6.709E-02  1.682E+00
   1    5    8     3     5    1.0456E+00  1.5790E-01   8.8768E-01  0.000E+00  0.000E+00  0.000E+00  1.06362E+03  1.164E+00  6.655E+00  4.991E-02  1.582E+00
   1    6    8     3     6    8.8768E-01  5.5980E-02   8.3170E-01  0.000E+00  0.000E+00  0.000E+00  1.06158E+03  1.036E+00  6.145E+00  1.844E-02  1.518E+00
   1    5   10     4     1    1.0000E+01  9.0919E-02   9.9091E+00  0.000E+00  0.000E+00  0.000E+00  1.07836E+03  6.368E-01  1.000E+01  2.500E-02  1.212E+00
   1    5    9     4     2    9.9091E+00  1.8158E-01   9.7275E+00  0.000E+00  0.000E+00  0.000E+00  1.07154E+03  6.315E-01  1.000E+01  5.000E-02  1.211E+00
   1    6    8     4     3    9.7275E+00  1.2689E-01   9.6006E+00  0.000E+00  0.000E+00  0.000E+00  1.06381E+03  6.256E-01  1.000E+01  3.500E-02  1.209E+00
   1    6    8     5     1    1.0432E+01  2.2686E-01   1.0205E+01  0.000E+00  0.000E+00  0.000E+00  1.05868E+03  6.790E-01  1.542E+01  6.166E-02  1.226E+00
   1    7    7     5     2    1.0205E+01  2.7894E-01   9.9265E+00  0.000E+00  0.000E+00  0.000E+00  1.05417E+03  6.732E-01  1.519E+01  7.594E-02  1.224E+00
   1    8    7     5     3    9.9265E+00  1.9221E-01   9.7343E+00  0.000E+00  0.000E+00  0.000E+00  1.04992E+03  6.676E-01  1.497E+01  5.241E-02  1.223E+00
   1    8    6     5     4    9.7343E+00  1.3577E-01   9.5985E+00  0.000E+00  0.000E+00  0.000E+00  1.04691E+03  6.637E-01  1.482E+01  3.706E-02  1.221E+00
   1    9    6     6     1    3.1263E+01  2.6357E-01   3.0999E+01  0.000E+00  0.000E+00  0.000E+00  1.04412E+03  1.393E+00  1.200E+01  6.000E-02  1.464E+00
   1   10    7     6     2    3.0999E+01  2.6314E-01   3.0736E+01  0.000E+00  0.000E+00  0.000E+00  1.03957E+03  1.386E+00  1.200E+01  6.000E-02  1.462E+00
   1   11    7     6     3    3.0736E+01  2.6272E-01   3.0473E+01  0.000E+00  0.000E+00  0.000E+00  1.03502E+03  1.379E+00  1.200E+01  6.000E-02  1.460E+00
   1   12    7     6     4    3.0473E+01  2.6229E-01   3.0211E+01  0.000E+00  0.000E+00  0.000E+00  1.03046E+03  1.372E+00  1.200E+01  6.000E-02  1.457E+00
   1   13    7     6     5    3.0211E+01  3.4061E-03   3.0208E+01  0.000E+00  0.000E+00  0.000E+00  1.02728E+03  1.368E+00  1.200E+01  2.400E-02  4.731E-02
   1   14    9     7     1    1.5000E+02  1.3358E+00   1.4866E+02  0.000E+00  0.000E+00  0.000E+00  1.03987E+03  2.288E+00  5.529E+01  5.593E-01  7.961E-01
   1   13    8     7     2    1.4866E+02  1.8222E+00   1.4684E+02  0.000E+00  0.000E+00  0.000E+00  1.03478E+03  2.279E+00  5.526E+01  6.148E-01  9.880E-01
   1   13    7     7     3    1.4684E+02  1.4268E+00   1.4542E+02  0.000E+00  0.000E+00  0.000E+00  1.02969E+03  2.271E+00  5.522E+01  5.585E-01  8.516E-01
   1   13    6     8     1    1.7562E+02  8.9401E-01   1.7473E+02  0.000E+00  0.000E+00  0.000E+00  1.02486E+03  2.986E+00  4.329E+01  4.412E-01  6.755E-01
   1   13    5     8     2    1.7473E+02  1.3509E-01   1.7459E+02  0.000E+00  0.000E+00  0.000E+00  1.01861E+03  2.982E+00  4.324E+01  4.407E-01  1.022E-01
   1   13    4     8     3    1.7459E+02 -2.6040E+00   1.7720E+02  0.000E+00  0.000E+00  0.000E+00  1.01237E+03  2.990E+00  4.336E+01  4.418E+00 -1.965E-01
   1   13    3     8     4    1.7720E+02 -3.7192E+00   1.8092E+02  0.000E+00  0.000E+00  0.000E+00  1.00614E+03  3.010E+00  4.365E+01  4.448E+00 -2.787E-01
   1   13    2     8     5    1.8092E+02 -2.5737E+00   1.8349E+02  0.000E+00  0.000E+00  0.000E+00  9.99905E+02  3.030E+00  4.393E+01  4.477E+00 -1.916E-01
   1   13    1     8     6    1.8349E+02 -1.9611E+00   1.8545E+02  0.000E+00  0.000E+00  0.000E+00  9.94919E+02  3.044E+00  4.414E+01  2.699E+00 -2.422E-01
   1    8    6     9     1    0.0000E+00  0.0000E+00   0.0000E+00  0.000E+00  0.000E+00  0.000E+00  1.07875E+03  0.000E+00  4.000E+00  0.000E+00  1.000E+00
   1    8    5     9     2    0.0000E+00  0.0000E+00   0.0000E+00  0.000E+00  0.000E+00  0.000E+00  1.07825E+03  0.000E+00  4.000E+00  0.000E+00  1.000E+00





UNSATURATED ZONE PACKAGE VOLUMETRIC BUDGET FOR  TIME STEP    30 STRESS PERIOD   11
  ------------------------------------------------------------------------------



     CUMULATIVE VOLUMES      L**3       RATES FOR THIS TIME STEP      L**3/T
     ------------------                 ------------------------

           IN:                                      IN:
           ---                                      ---
        INFILTRATION =   515693733.6965          INFILTRATION =           4.4075

          OUT:                                     OUT:
          ----                                     ----
              UZF ET =   493751599.1606                UZF ET =           3.7809
        UZF RECHARGE =       73224.0000          UZF RECHARGE =       0.0000E+00

            IN - OUT =    21868910.5359              IN - OUT =           0.6266

          STORAGE:                                 STORAGE:
          --------                                 --------
      STORAGE CHANGE =    21868903.0980        STORAGE CHANGE =           0.6266

 PERCENT DISCREPANCY IS DIFFERENCE BETWEEN IN-OUT MINUS CHANGE IN STORAGE
 DIVIDED BY THE AVERAGE OF IN AND OUT TIMES 100

 PERCENT DISCREPANCY =           0.00     PERCENT DISCREPANCY =           0.00






1
  VOLUMETRIC BUDGET FOR AGRICULTURAL FIELDS AT TIME STEP   30, STRESS PERIOD  11
  ------------------------------------------------------------------------------

     CUMULATIVE VOLUMES      L**3       RATES FOR THIS TIME STEP      L**3/T
     ------------------                 ------------------------

           IN:                                      IN:
           ---                                      ---
               AG WELLS  =    44249552.0000                 AG WELLS  =           0.0000
      DIVERSION SEGMENTS =   355446592.0000        DIVERSION SEGMENTS =           0.0000
           GW IRRIGATION =           0.0000             GW IRRIGATION =           0.0000
           SW IRRIGATION =           0.0000             SW IRRIGATION =           0.0000
        SYSTEM LOSSES GW =           0.0000          SYSTEM LOSSES GW =           0.0000
        SYSTEM LOSSES SW =           0.0000          SYSTEM LOSSES SW =           0.0000

                TOTAL IN =   399696128.0000                  TOTAL IN =           0.0000

          OUT:                                     OUT:
          ----                                     ----
               AG WELLS  =           0.0000                 AG WELLS  =           0.0000
      DIVERSION SEGMENTS =           0.0000        DIVERSION SEGMENTS =           0.0000
           GW IRRIGATION =    44249552.0000             GW IRRIGATION =           0.0000
           SW IRRIGATION =   355453760.0000             SW IRRIGATION =           0.0000
        SYSTEM LOSSES GW =           0.0000          SYSTEM LOSSES GW =           0.0000
        SYSTEM LOSSES SW =           0.0000          SYSTEM LOSSES SW =           0.0000

               TOTAL OUT =   399703296.0000                 TOTAL OUT =           0.0000

                IN - OUT =       -7168.0000                  IN - OUT =           0.0000

     PERCENT DISCREPANCY =          -0.00         PERCENT DISCREPANCY =           0.00



1
  VOLUMETRIC BUDGET FOR ENTIRE MODEL AT END OF TIME STEP   30, STRESS PERIOD  11
  ------------------------------------------------------------------------------

     CUMULATIVE VOLUMES      L**3       RATES FOR THIS TIME STEP      L**3/T
     ------------------                 ------------------------

           IN:                                      IN:
           ---                                      ---
             STORAGE     =    72839104.0000               STORAGE     =           1.3823
       CONSTANT HEAD     =           0.0000         CONSTANT HEAD     =           0.0000
     HEAD DEP BOUNDS     =     7539507.5000       HEAD DEP BOUNDS     =           0.2858
      STREAM LEAKAGE     =   319512928.0000        STREAM LEAKAGE     =          11.6562
        UZF RECHARGE     =       73223.9531          UZF RECHARGE     =           0.0000
               GW ET     =           0.0000                 GW ET     =           0.0000
     SURFACE LEAKAGE     =           0.0000       SURFACE LEAKAGE     =           0.0000
           AG WELLS      =           0.0000             AG WELLS      =           0.0000

                TOTAL IN =   399964736.0000                  TOTAL IN =          13.3243

          OUT:                                     OUT:
          ----                                     ----
             STORAGE     =    61656340.0000               STORAGE     =           2.1760
       CONSTANT HEAD     =           0.0000         CONSTANT HEAD     =           0.0000
     HEAD DEP BOUNDS     =     7677489.0000       HEAD DEP BOUNDS     =           0.2905
      STREAM LEAKAGE     =   284834528.0000        STREAM LEAKAGE     =          10.8580
        UZF RECHARGE     =           0.0000          UZF RECHARGE     =           0.0000
               GW ET     =     1532013.0000                 GW ET     =           0.0000
     SURFACE LEAKAGE     =           0.0000       SURFACE LEAKAGE     =           0.0000
           AG WELLS      =    44249552.0000             AG WELLS      =           0.0000

               TOTAL OUT =   399949888.0000                 TOTAL OUT =          13.3245

                IN - OUT =       14848.0000                  IN - OUT =      -2.2316E-04

     PERCENT DISCREPANCY =           0.00         PERCENT DISCREPANCY =          -0.00






         TIME SUMMARY AT END OF TIME STEP   30 IN STRESS PERIOD   11
                    SECONDS     MINUTES      HOURS       DAYS        YEARS
                    -----------------------------------------------------------
   TIME STEP LENGTH  87667.      1461.1      24.352      1.0147     2.77799E-03
 STRESS PERIOD TIME 2.63000E+06  43833.      730.56      30.440     8.33397E-02
         TOTAL TIME 2.63864E+07 4.39773E+05  7329.5      305.40     0.83613    
1
1
                            STRESS PERIOD NO.   12, LENGTH =   2630000.    
                            -----------------------------------------------

                              NUMBER OF TIME STEPS =    30

                               MULTIPLIER FOR DELT =     1.000

                            INITIAL TIME STEP SIZE =   87666.66    

 REUSING NON-PARAMETER GHB CELLS FROM LAST STRESS PERIOD

      2 GHB CELLS

 REUSING STREAM SEGMENT DATA FROM LAST STRESS PERIOD



            AREAL INFILTRATION RATE
 READING ON UNIT   19 WITH FORMAT: (10F4.0)            

            1           2           3           4           5           6           7           8           9          10
 ........................................................................................................................
   1   1.2000E-09   0.000       0.000       0.000       0.000       0.000       0.000       0.000       0.000       0.000    
   2   2.1000E-09  2.0000E-09  8.0000E-10  8.5000E-09   0.000       0.000       0.000       0.000       0.000       0.000    
   3   5.0000E-10  1.1000E-09  8.8000E-09  5.5000E-09   0.000       0.000       0.000       0.000       0.000       0.000    
   4   8.5000E-09  1.1000E-09  1.1000E-09  1.1000E-09  2.0000E-09   0.000       0.000       0.000       0.000       0.000    
   5   8.5000E-09  1.1000E-09  1.1000E-09  1.1000E-09  1.1000E-09   0.000       0.000       0.000       0.000       0.000    
   6   8.5000E-09  5.2000E-09  2.1000E-09  1.1000E-09  1.5000E-09   0.000       0.000       0.000       0.000       0.000    
   7   8.5000E-09  5.2000E-09  2.1000E-09  1.2000E-09  2.0000E-09   0.000       0.000       0.000       0.000       0.000    
   8   5.0000E-10  5.2000E-09  2.1000E-09  1.2000E-09  5.0000E-09   0.000       0.000       0.000       0.000       0.000    
   9   5.0000E-10  5.2000E-09  2.1000E-09  1.2000E-09  5.0000E-09   0.000       0.000       0.000       0.000       0.000    
  10   5.0000E-10  5.2000E-09  2.1000E-09  1.2000E-09  5.8000E-09   0.000       0.000       0.000       0.000       0.000    
  11   1.0000E-10  1.1000E-09  1.1000E-09  1.2000E-09  5.0000E-09   0.000       0.000       0.000       0.000       0.000    
  12   1.1000E-09  1.1000E-09  1.1000E-09  1.1000E-09  2.0000E-09   0.000       0.000       0.000       0.000       0.000    
  13   1.1000E-09  2.2000E-09  2.2000E-09  2.1000E-09  1.0000E-09   0.000       0.000       0.000       0.000       0.000    
  14   2.0000E-10  5.5000E-09  5.5000E-09  5.2000E-09  1.0000E-09   0.000       0.000       0.000       0.000       0.000    
  15    0.000      8.8000E-09  8.8000E-09   0.000       0.000       0.000       0.000       0.000       0.000       0.000    

                  ET RATE =  5.000000E-10

 USING ET EXTINCTION DEPTH FROM PREVIOUS STRESS PERIOD. CURRENT PERIOD IS:      12

 USING EXTINCTION WATER CONTENT FROM PREVIOUS STRESS PERIOD. CURRENT PERIOD IS:      12

 USING AIR ENTRY PRESSURE FROM PREVIOUS STRESS PERIOD. CURRENT PERIOD IS:      12

 USING ROOT PRESSURE HEAD FROM PREVIOUS STRESS PERIOD. CURRENT PERIOD IS:      12

 USING ROOT ACTIVITY FROM PREVIOUS STRESS PERIOD. CURRENT PERIOD IS:      12

 PROCESSING AG STRESS PERIOD DATA

 READING AG STRESS PERIOD DATA

 READING IRRIGATION SEGMENT

 READING IRRIGATION WELL

 READING SUPPLEMENTAL WELL

 END PROCESSING AG STRESS PERIOD DATA OPTIONS
 
 SOLVING FOR HEAD 
                                                   Max.-Head-Change                         Max.-Flux-Residual
  Residual-Control   Outer-Iter.   Inner-Iter.     Column Row Layer    Maximum-Head-Change  Column Row Layer    Maximum-Flux-Residual          L2-NORM 
          0                 1           2             4    7     1       0.5824964310E-02       4    7    1         0.3071670918E+00      0.6729255768E+00
          0                 2           2             4    7     1      -0.5666109044E-03       4    7    1        -0.3071675769E-01      0.6728736473E-01
          0                 3           1             4    7     1       0.3858409466E-04       4    7    1         0.2150173505E-02      0.4697858131E-02

    ------------------------------------------------
       NWT REQUIRED            3 OUTER ITERATIONS 
       AND A TOTAL OF          5 INNER ITERATIONS.
    ------------------------------------------------

 NO OUTPUT CONTROL FOR STRESS PERIOD   12   TIME STEP    1
 
 SOLVING FOR HEAD 
                                                   Max.-Head-Change                         Max.-Flux-Residual
  Residual-Control   Outer-Iter.   Inner-Iter.     Column Row Layer    Maximum-Head-Change  Column Row Layer    Maximum-Flux-Residual          L2-NORM 
          0                 1           2             4    7     1       0.5739546969E-02       4    7    1         0.3026555132E+00      0.6726331241E+00
          0                 2           2             4    7     1      -0.5583021085E-03       4    7    1        -0.3026559861E-01      0.6708112101E-01
          0                 3           1             4    7     1       0.3801829714E-04       4    7    1         0.2118592386E-02      0.4679019355E-02

    ------------------------------------------------
       NWT REQUIRED            3 OUTER ITERATIONS 
       AND A TOTAL OF          5 INNER ITERATIONS.
    ------------------------------------------------

 NO OUTPUT CONTROL FOR STRESS PERIOD   12   TIME STEP    2
 
 SOLVING FOR HEAD 
                                                   Max.-Head-Change                         Max.-Flux-Residual
  Residual-Control   Outer-Iter.   Inner-Iter.     Column Row Layer    Maximum-Head-Change  Column Row Layer    Maximum-Flux-Residual          L2-NORM 
          0                 1           2             4    7     1       0.5655721384E-02       4    7    1         0.2982267165E+00      0.6593065380E+00
          0                 2           2             4    7     1      -0.5501481466E-03       4    7    1        -0.2982271774E-01      0.6577298738E-01
          0                 3           1             4    7     1       0.3746304271E-04       4    7    1         0.2087590704E-02      0.4589657915E-02

    ------------------------------------------------
       NWT REQUIRED            3 OUTER ITERATIONS 
       AND A TOTAL OF          5 INNER ITERATIONS.
    ------------------------------------------------

 NO OUTPUT CONTROL FOR STRESS PERIOD   12   TIME STEP    3
 
 SOLVING FOR HEAD 
                                                   Max.-Head-Change                         Max.-Flux-Residual
  Residual-Control   Outer-Iter.   Inner-Iter.     Column Row Layer    Maximum-Head-Change  Column Row Layer    Maximum-Flux-Residual          L2-NORM 
          0                 1           2             4    7     1       0.5573187166E-02       4    7    1         0.2938656434E+00      0.6468478278E+00
          0                 2           2             4    7     1      -0.5421198006E-03       4    7    1        -0.2938660925E-01      0.6454707171E-01
          0                 3           1             4    7     1       0.3691634237E-04       4    7    1         0.2057063127E-02      0.4505563457E-02

    ------------------------------------------------
       NWT REQUIRED            3 OUTER ITERATIONS 
       AND A TOTAL OF          5 INNER ITERATIONS.
    ------------------------------------------------

 NO OUTPUT CONTROL FOR STRESS PERIOD   12   TIME STEP    4
 
 SOLVING FOR HEAD 
                                                   Max.-Head-Change                         Max.-Flux-Residual
  Residual-Control   Outer-Iter.   Inner-Iter.     Column Row Layer    Maximum-Head-Change  Column Row Layer    Maximum-Flux-Residual          L2-NORM 
          0                 1           2             4    7     1       0.5492206530E-02       4    7    1         0.2895863338E+00      0.6351820682E+00
          0                 2           2             4    7     1      -0.5342425758E-03       4    7    1        -0.2895867716E-01      0.6339898548E-01
          0                 3           1             4    7     1       0.3637993257E-04       4    7    1         0.2027107863E-02      0.4426900580E-02

    ------------------------------------------------
       NWT REQUIRED            3 OUTER ITERATIONS 
       AND A TOTAL OF          5 INNER ITERATIONS.
    ------------------------------------------------

 NO OUTPUT CONTROL FOR STRESS PERIOD   12   TIME STEP    5
 
 SOLVING FOR HEAD 
                                                   Max.-Head-Change                         Max.-Flux-Residual
  Residual-Control   Outer-Iter.   Inner-Iter.     Column Row Layer    Maximum-Head-Change  Column Row Layer    Maximum-Flux-Residual          L2-NORM 
          0                 1           2             4    7     1       0.5412481947E-02       4    7    1         0.2853727680E+00      0.6241869476E+00
          0                 2           2             4    7     1      -0.5264875311E-03       4    7    1        -0.2853731944E-01      0.6231566289E-01
          0                 3           1             4    7     1       0.3585184326E-04       4    7    1         0.1997612832E-02      0.4352692570E-02

    ------------------------------------------------
       NWT REQUIRED            3 OUTER ITERATIONS 
       AND A TOTAL OF          5 INNER ITERATIONS.
    ------------------------------------------------

 NO OUTPUT CONTROL FOR STRESS PERIOD   12   TIME STEP    6
 
 SOLVING FOR HEAD 
                                                   Max.-Head-Change                         Max.-Flux-Residual
  Residual-Control   Outer-Iter.   Inner-Iter.     Column Row Layer    Maximum-Head-Change  Column Row Layer    Maximum-Flux-Residual          L2-NORM 
          0                 1           2             4    7     1       0.5334001698E-02       4    7    1         0.2812243269E+00      0.6138018812E+00
          0                 2           2             4    7     1      -0.5188535266E-03       4    7    1        -0.2812247423E-01      0.6129001991E-01
          0                 3           1             4    7     1       0.3533199563E-04       4    7    1         0.1968573651E-02      0.4282033525E-02

    ------------------------------------------------
       NWT REQUIRED            3 OUTER ITERATIONS 
       AND A TOTAL OF          5 INNER ITERATIONS.
    ------------------------------------------------

 NO OUTPUT CONTROL FOR STRESS PERIOD   12   TIME STEP    7
 
 SOLVING FOR HEAD 
                                                   Max.-Head-Change                         Max.-Flux-Residual
  Residual-Control   Outer-Iter.   Inner-Iter.     Column Row Layer    Maximum-Head-Change  Column Row Layer    Maximum-Flux-Residual          L2-NORM 
          0                 1           2             4    7     1       0.5257030576E-02       4    7    1         0.2771552114E+00      0.6039649836E+00
          0                 2           2             4    7     1      -0.5113663195E-03       4    7    1        -0.2771556161E-01      0.6031795268E-01
          0                 3           1             4    7     1       0.3482214507E-04       4    7    1         0.1940089774E-02      0.4214993228E-02

    ------------------------------------------------
       NWT REQUIRED            3 OUTER ITERATIONS 
       AND A TOTAL OF          5 INNER ITERATIONS.
    ------------------------------------------------

 NO OUTPUT CONTROL FOR STRESS PERIOD   12   TIME STEP    8
 
 SOLVING FOR HEAD 
                                                   Max.-Head-Change                         Max.-Flux-Residual
  Residual-Control   Outer-Iter.   Inner-Iter.     Column Row Layer    Maximum-Head-Change  Column Row Layer    Maximum-Flux-Residual          L2-NORM 
          0                 1           2             4    7     1       0.5181263744E-02       4    7    1         0.2731495341E+00      0.5946042767E+00
          0                 2           2             4    7     1      -0.5039962569E-03       4    7    1        -0.2731499284E-01      0.5939202880E-01
          0                 3           1             4    7     1       0.3432027088E-04       4    7    1         0.1912049935E-02      0.4151133547E-02

    ------------------------------------------------
       NWT REQUIRED            3 OUTER ITERATIONS 
       AND A TOTAL OF          5 INNER ITERATIONS.
    ------------------------------------------------

 NO OUTPUT CONTROL FOR STRESS PERIOD   12   TIME STEP    9
 
 SOLVING FOR HEAD 
                                                   Max.-Head-Change                         Max.-Flux-Residual
  Residual-Control   Outer-Iter.   Inner-Iter.     Column Row Layer    Maximum-Head-Change  Column Row Layer    Maximum-Flux-Residual          L2-NORM 
          0                 1           2             4    7     1       0.5106966953E-02       4    7    1         0.2692211064E+00      0.5856763993E+00
          0                 2           2             4    7     1      -0.4967691902E-03       4    7    1        -0.2692214903E-01      0.5850801865E-01
          0                 3           1             4    7     1       0.3382813508E-04       4    7    1         0.1884550893E-02      0.4090122036E-02

    ------------------------------------------------
       NWT REQUIRED            3 OUTER ITERATIONS 
       AND A TOTAL OF          5 INNER ITERATIONS.
    ------------------------------------------------

 NO OUTPUT CONTROL FOR STRESS PERIOD   12   TIME STEP   10
 
 SOLVING FOR HEAD 
                                                   Max.-Head-Change                         Max.-Flux-Residual
  Residual-Control   Outer-Iter.   Inner-Iter.     Column Row Layer    Maximum-Head-Change  Column Row Layer    Maximum-Flux-Residual          L2-NORM 
          0                 1           2             4    7     1       0.5033842571E-02       4    7    1         0.2653540900E+00      0.5771368415E+00
          0                 2           2             4    7     1      -0.4896561667E-03       4    7    1        -0.2653544640E-01      0.5766164662E-01
          0                 3           1             4    7     1       0.3334376406E-04       4    7    1         0.1857481686E-02      0.4031571928E-02

    ------------------------------------------------
       NWT REQUIRED            3 OUTER ITERATIONS 
       AND A TOTAL OF          5 INNER ITERATIONS.
    ------------------------------------------------

 NO OUTPUT CONTROL FOR STRESS PERIOD   12   TIME STEP   11
 
 SOLVING FOR HEAD 
                                                   Max.-Head-Change                         Max.-Flux-Residual
  Residual-Control   Outer-Iter.   Inner-Iter.     Column Row Layer    Maximum-Head-Change  Column Row Layer    Maximum-Flux-Residual          L2-NORM 
          0                 1           2             4    7     1       0.4961873127E-02       4    7    1         0.2615478616E+00      0.5689380920E+00
          0                 2           2             4    7     1      -0.4826554877E-03       4    7    1        -0.2615482258E-01      0.5684825824E-01
          0                 3           1             4    7     1       0.3286704398E-04       4    7    1         0.1830838014E-02      0.3975324097E-02

    ------------------------------------------------
       NWT REQUIRED            3 OUTER ITERATIONS 
       AND A TOTAL OF          5 INNER ITERATIONS.
    ------------------------------------------------

 NO OUTPUT CONTROL FOR STRESS PERIOD   12   TIME STEP   12
 
 SOLVING FOR HEAD 
                                                   Max.-Head-Change                         Max.-Flux-Residual
  Residual-Control   Outer-Iter.   Inner-Iter.     Column Row Layer    Maximum-Head-Change  Column Row Layer    Maximum-Flux-Residual          L2-NORM 
          0                 1           2             4    7     1       0.4891320505E-02       4    7    1         0.2578163245E+00      0.5610644122E+00
          0                 2           2             4    7     1      -0.4757926276E-03       4    7    1        -0.2578166790E-01      0.5606683594E-01
          0                 3           1             4    7     1       0.3239970917E-04       4    7    1         0.1804717204E-02      0.3921079218E-02

    ------------------------------------------------
       NWT REQUIRED            3 OUTER ITERATIONS 
       AND A TOTAL OF          5 INNER ITERATIONS.
    ------------------------------------------------

 NO OUTPUT CONTROL FOR STRESS PERIOD   12   TIME STEP   13
 
 SOLVING FOR HEAD 
                                                   Max.-Head-Change                         Max.-Flux-Residual
  Residual-Control   Outer-Iter.   Inner-Iter.     Column Row Layer    Maximum-Head-Change  Column Row Layer    Maximum-Flux-Residual          L2-NORM 
          0                 1           2             4    7     1       0.4822150723E-02       4    7    1         0.2541582480E+00      0.5534732745E+00
          0                 2           2             4    7     1      -0.4690642804E-03       4    7    1        -0.2541585934E-01      0.5531293321E-01
          0                 3           1             4    7     1       0.3194153410E-04       4    7    1         0.1779110608E-02      0.3868810123E-02

    ------------------------------------------------
       NWT REQUIRED            3 OUTER ITERATIONS 
       AND A TOTAL OF          5 INNER ITERATIONS.
    ------------------------------------------------

 NO OUTPUT CONTROL FOR STRESS PERIOD   12   TIME STEP   14
 
 SOLVING FOR HEAD 
                                                   Max.-Head-Change                         Max.-Flux-Residual
  Residual-Control   Outer-Iter.   Inner-Iter.     Column Row Layer    Maximum-Head-Change  Column Row Layer    Maximum-Flux-Residual          L2-NORM 
          0                 1           2             4    7     1       0.4753801402E-02       4    7    1         0.2505422513E+00      0.5461472926E+00
          0                 2           2             4    7     1      -0.4624157415E-03       4    7    1        -0.2505425874E-01      0.5458452289E-01
          0                 3           1             4    7     1       0.3148879304E-04       4    7    1         0.1753798561E-02      0.3818249271E-02

    ------------------------------------------------
       NWT REQUIRED            3 OUTER ITERATIONS 
       AND A TOTAL OF          5 INNER ITERATIONS.
    ------------------------------------------------

 NO OUTPUT CONTROL FOR STRESS PERIOD   12   TIME STEP   15
 
 SOLVING FOR HEAD 
                                                   Max.-Head-Change                         Max.-Flux-Residual
  Residual-Control   Outer-Iter.   Inner-Iter.     Column Row Layer    Maximum-Head-Change  Column Row Layer    Maximum-Flux-Residual          L2-NORM 
          0                 1           2             4    7     1       0.4687078253E-02       4    7    1         0.2470132234E+00      0.5390629291E+00
          0                 2           2             4    7     1      -0.4559253856E-03       4    7    1        -0.2470135507E-01      0.5388006829E-01
          0                 3           1             4    7     1       0.3104682416E-04       4    7    1         0.1729095306E-02      0.3769356918E-02

    ------------------------------------------------
       NWT REQUIRED            3 OUTER ITERATIONS 
       AND A TOTAL OF          5 INNER ITERATIONS.
    ------------------------------------------------

 NO OUTPUT CONTROL FOR STRESS PERIOD   12   TIME STEP   16
 
 SOLVING FOR HEAD 
                                                   Max.-Head-Change                         Max.-Flux-Residual
  Residual-Control   Outer-Iter.   Inner-Iter.     Column Row Layer    Maximum-Head-Change  Column Row Layer    Maximum-Flux-Residual          L2-NORM 
          0                 1           2             4    7     1       0.4621397143E-02       4    7    1         0.2435388910E+00      0.5322010085E+00
          0                 2           2             4    7     1      -0.4495363915E-03       4    7    1        -0.2435392096E-01      0.5319691150E-01
          0                 3           1             4    7     1       0.3061175692E-04       4    7    1         0.1704774895E-02      0.3721634521E-02

    ------------------------------------------------
       NWT REQUIRED            3 OUTER ITERATIONS 
       AND A TOTAL OF          5 INNER ITERATIONS.
    ------------------------------------------------

 NO OUTPUT CONTROL FOR STRESS PERIOD   12   TIME STEP   17
 
 SOLVING FOR HEAD 
                                                   Max.-Head-Change                         Max.-Flux-Residual
  Residual-Control   Outer-Iter.   Inner-Iter.     Column Row Layer    Maximum-Head-Change  Column Row Layer    Maximum-Flux-Residual          L2-NORM 
          0                 1           2             4    7     1       0.4556750421E-02       4    7    1         0.2401185872E+00      0.5255484900E+00
          0                 2           2             4    7     1      -0.4432480160E-03       4    7    1        -0.2401188973E-01      0.5253448720E-01
          0                 3           1             4    7     1       0.3018354231E-04       4    7    1         0.1680832714E-02      0.3675484273E-02

    ------------------------------------------------
       NWT REQUIRED            3 OUTER ITERATIONS 
       AND A TOTAL OF          5 INNER ITERATIONS.
    ------------------------------------------------

 NO OUTPUT CONTROL FOR STRESS PERIOD   12   TIME STEP   18
 
 SOLVING FOR HEAD 
                                                   Max.-Head-Change                         Max.-Flux-Residual
  Residual-Control   Outer-Iter.   Inner-Iter.     Column Row Layer    Maximum-Head-Change  Column Row Layer    Maximum-Flux-Residual          L2-NORM 
          0                 1           2             4    7     1       0.4493388017E-02       4    7    1         0.2367667252E+00      0.5190769873E+00
          0                 2           2             4    7     1      -0.4370845691E-03       4    7    1        -0.2367670269E-01      0.5188976879E-01
          0                 3           1             4    7     1       0.2976383445E-04       4    7    1         0.1657369606E-02      0.3630630940E-02

    ------------------------------------------------
       NWT REQUIRED            3 OUTER ITERATIONS 
       AND A TOTAL OF          5 INNER ITERATIONS.
    ------------------------------------------------

 NO OUTPUT CONTROL FOR STRESS PERIOD   12   TIME STEP   19
 
 SOLVING FOR HEAD 
                                                   Max.-Head-Change                         Max.-Flux-Residual
  Residual-Control   Outer-Iter.   Inner-Iter.     Column Row Layer    Maximum-Head-Change  Column Row Layer    Maximum-Flux-Residual          L2-NORM 
          0                 1           2             4    7     1       0.4431284820E-02       4    7    1         0.2334814536E+00      0.5127966823E+00
          0                 2           2             4    7     1      -0.4310436102E-03       4    7    1        -0.2334817475E-01      0.5126394746E-01
          0                 3           1             4    7     1       0.2935246814E-04       4    7    1         0.1634372665E-02      0.3587168300E-02

    ------------------------------------------------
       NWT REQUIRED            3 OUTER ITERATIONS 
       AND A TOTAL OF          5 INNER ITERATIONS.
    ------------------------------------------------

 NO OUTPUT CONTROL FOR STRESS PERIOD   12   TIME STEP   20
 
 SOLVING FOR HEAD 
                                                   Max.-Head-Change                         Max.-Flux-Residual
  Residual-Control   Outer-Iter.   Inner-Iter.     Column Row Layer    Maximum-Head-Change  Column Row Layer    Maximum-Flux-Residual          L2-NORM 
          0                 1           2             4    7     1       0.4370145739E-02       4    7    1         0.2302466601E+00      0.5066806074E+00
          0                 2           2             4    7     1      -0.4250964331E-03       4    7    1        -0.2302469463E-01      0.5065417762E-01
          0                 3           1             4    7     1       0.2894748704E-04       4    7    1         0.1611729035E-02      0.3544458676E-02

    ------------------------------------------------
       NWT REQUIRED            3 OUTER ITERATIONS 
       AND A TOTAL OF          5 INNER ITERATIONS.
    ------------------------------------------------

 NO OUTPUT CONTROL FOR STRESS PERIOD   12   TIME STEP   21
 
 SOLVING FOR HEAD 
                                                   Max.-Head-Change                         Max.-Flux-Residual
  Residual-Control   Outer-Iter.   Inner-Iter.     Column Row Layer    Maximum-Head-Change  Column Row Layer    Maximum-Flux-Residual          L2-NORM 
          0                 1           2             4    7     1       0.4309950726E-02       4    7    1         0.2270618549E+00      0.5007155763E+00
          0                 2           2             4    7     1      -0.4192410887E-03       4    7    1        -0.2270621335E-01      0.5005926478E-01
          0                 3           1             4    7     1       0.2854875979E-04       4    7    1         0.1589435354E-02      0.3503052514E-02

    ------------------------------------------------
       NWT REQUIRED            3 OUTER ITERATIONS 
       AND A TOTAL OF          5 INNER ITERATIONS.
    ------------------------------------------------

 NO OUTPUT CONTROL FOR STRESS PERIOD   12   TIME STEP   22
 
 SOLVING FOR HEAD 
                                                   Max.-Head-Change                         Max.-Flux-Residual
  Residual-Control   Outer-Iter.   Inner-Iter.     Column Row Layer    Maximum-Head-Change  Column Row Layer    Maximum-Flux-Residual          L2-NORM 
          0                 1           2             4    7     1       0.4250966503E-02       4    7    1         0.2239408090E+00      0.4949096456E+00
          0                 2           2             4    7     1      -0.4135035216E-03       4    7    1        -0.2239410803E-01      0.4948021272E-01
          0                 3           1             4    7     1       0.2815805316E-04       4    7    1         0.1567587992E-02      0.3462544338E-02

    ------------------------------------------------
       NWT REQUIRED            3 OUTER ITERATIONS 
       AND A TOTAL OF          5 INNER ITERATIONS.
    ------------------------------------------------

 NO OUTPUT CONTROL FOR STRESS PERIOD   12   TIME STEP   23
 
 SOLVING FOR HEAD 
                                                   Max.-Head-Change                         Max.-Flux-Residual
  Residual-Control   Outer-Iter.   Inner-Iter.     Column Row Layer    Maximum-Head-Change  Column Row Layer    Maximum-Flux-Residual          L2-NORM 
          0                 1           2             4    7     1       0.4193156326E-02       4    7    1         0.2208825413E+00      0.4892452999E+00
          0                 2           2             4    7     1      -0.4078801570E-03       4    7    1        -0.2208828054E-01      0.4891499090E-01
          0                 3           1             4    7     1       0.2777512315E-04       4    7    1         0.1546180056E-02      0.3423169168E-02

    ------------------------------------------------
       NWT REQUIRED            3 OUTER ITERATIONS 
       AND A TOTAL OF          5 INNER ITERATIONS.
    ------------------------------------------------

 NO OUTPUT CONTROL FOR STRESS PERIOD   12   TIME STEP   24
 
 SOLVING FOR HEAD 
                                                   Max.-Head-Change                         Max.-Flux-Residual
  Residual-Control   Outer-Iter.   Inner-Iter.     Column Row Layer    Maximum-Head-Change  Column Row Layer    Maximum-Flux-Residual          L2-NORM 
          0                 1           2             4    7     1       0.4136226218E-02       4    7    1         0.2178703355E+00      0.4837072191E+00
          0                 2           2             4    7     1      -0.4023423995E-03       4    7    1        -0.2178705926E-01      0.4836281126E-01
          0                 3           1             4    7     1       0.2739802263E-04       4    7    1         0.1525094578E-02      0.3385275993E-02

    ------------------------------------------------
       NWT REQUIRED            3 OUTER ITERATIONS 
       AND A TOTAL OF          5 INNER ITERATIONS.
    ------------------------------------------------

 NO OUTPUT CONTROL FOR STRESS PERIOD   12   TIME STEP   25
 
 SOLVING FOR HEAD 
                                                   Max.-Head-Change                         Max.-Flux-Residual
  Residual-Control   Outer-Iter.   Inner-Iter.     Column Row Layer    Maximum-Head-Change  Column Row Layer    Maximum-Flux-Residual          L2-NORM 
          0                 1           2             4    7     1       0.4080433068E-02       4    7    1         0.2149185713E+00      0.4783019764E+00
          0                 2           2             4    7     1      -0.3969152375E-03       4    7    1        -0.2149188216E-01      0.4782270620E-01
          0                 3           1             4    7     1       0.2702845258E-04       4    7    1         0.1504432156E-02      0.3346852243E-02

    ------------------------------------------------
       NWT REQUIRED            3 OUTER ITERATIONS 
       AND A TOTAL OF          5 INNER ITERATIONS.
    ------------------------------------------------

 NO OUTPUT CONTROL FOR STRESS PERIOD   12   TIME STEP   26
 
 SOLVING FOR HEAD 
                                                   Max.-Head-Change                         Max.-Flux-Residual
  Residual-Control   Outer-Iter.   Inner-Iter.     Column Row Layer    Maximum-Head-Change  Column Row Layer    Maximum-Flux-Residual          L2-NORM 
          0                 1           2             4    7     1       0.4025482579E-02       4    7    1         0.2120109459E+00      0.4730176715E+00
          0                 2           2             4    7     1      -0.3915700434E-03       4    7    1        -0.2120111894E-01      0.4729508102E-01
          0                 3           1             4    7     1       0.2666446518E-04       4    7    1         0.1484078745E-02      0.3310082032E-02

    ------------------------------------------------
       NWT REQUIRED            3 OUTER ITERATIONS 
       AND A TOTAL OF          5 INNER ITERATIONS.
    ------------------------------------------------

 NO OUTPUT CONTROL FOR STRESS PERIOD   12   TIME STEP   27
 
 SOLVING FOR HEAD 
                                                   Max.-Head-Change                         Max.-Flux-Residual
  Residual-Control   Outer-Iter.   Inner-Iter.     Column Row Layer    Maximum-Head-Change  Column Row Layer    Maximum-Flux-Residual          L2-NORM 
          0                 1           2             4    7     1       0.3971634156E-02       4    7    1         0.2091618227E+00      0.4678460666E+00
          0                 2           2             4    7     1      -0.3871228309E-03       4    7    1        -0.2097087050E-01      0.4680099594E-01
          0                 3           1             4    7     1       0.2636162540E-04       4    7    1         0.1467961275E-02      0.3275574244E-02

    ------------------------------------------------
       NWT REQUIRED            3 OUTER ITERATIONS 
       AND A TOTAL OF          5 INNER ITERATIONS.
    ------------------------------------------------

 NO OUTPUT CONTROL FOR STRESS PERIOD   12   TIME STEP   28
 
 SOLVING FOR HEAD 
                                                   Max.-Head-Change                         Max.-Flux-Residual
  Residual-Control   Outer-Iter.   Inner-Iter.     Column Row Layer    Maximum-Head-Change  Column Row Layer    Maximum-Flux-Residual          L2-NORM 
          0                 1           2             4    7     1       0.3916343082E-02       4    7    1         0.2063276536E+00      0.4627735829E+00
          0                 2           2             4    7     1      -0.3809538236E-03       4    7    1        -0.2063279511E-01      0.4627207316E-01
          0                 3           1             4    7     1       0.2594153886E-04       4    7    1         0.1444296007E-02      0.3238575053E-02

    ------------------------------------------------
       NWT REQUIRED            3 OUTER ITERATIONS 
       AND A TOTAL OF          5 INNER ITERATIONS.
    ------------------------------------------------

 NO OUTPUT CONTROL FOR STRESS PERIOD   12   TIME STEP   29
 
 SOLVING FOR HEAD 
                                                   Max.-Head-Change                         Max.-Flux-Residual
  Residual-Control   Outer-Iter.   Inner-Iter.     Column Row Layer    Maximum-Head-Change  Column Row Layer    Maximum-Flux-Residual          L2-NORM 
          0                 1           2             4    7     1       0.3862778893E-02       4    7    1         0.2034882152E+00      0.4591889120E+00
          0                 2           2             4    7     1      -0.3757434747E-03       4    7    1        -0.2034885033E-01      0.4590767831E-01
          0                 3           1             4    7     1       0.2558673368E-04       4    7    1         0.1424419862E-02      0.3212489880E-02

    ------------------------------------------------
       NWT REQUIRED            3 OUTER ITERATIONS 
       AND A TOTAL OF          5 INNER ITERATIONS.
    ------------------------------------------------

 NO OUTPUT CONTROL FOR STRESS PERIOD   12   TIME STEP   30



 STREAM LISTING     PERIOD     12   STEP       30

 LAYER ROW COL. STREAM  RCH.  FLOW INTO     FLOW TO   FLOW OUT OF   OVRLND.     DIRECT     STREAM       STREAM     STREAM     STREAM   STREAMBED  STREAMBED
                SEG.NO.  NO.  STRM. RCH.    AQUIFER    STRM. RCH.    RUNOFF     PRECIP       ET          HEAD       DEPTH      WIDTH   CONDCTNC.   GRADIENT

   1    1    1     1     1    1.9081E+01  2.1479E-01   1.8866E+01  0.000E+00  0.000E+00  0.000E+00  1.09413E+03  1.083E+00  1.169E+01  5.260E-02  1.361E+00
   1    2    2     1     2    1.8866E+01  3.3136E-01   1.8535E+01  0.000E+00  0.000E+00  0.000E+00  1.08914E+03  1.079E+00  1.161E+01  8.124E-02  1.360E+00
   1    3    3     1     3    1.8535E+01  2.8134E-01   1.8253E+01  0.000E+00  0.000E+00  0.000E+00  1.08349E+03  1.074E+00  1.151E+01  6.906E-02  1.358E+00
   1    3    4     1     4    1.8253E+01  2.5804E-01   1.7995E+01  0.000E+00  0.000E+00  0.000E+00  1.07848E+03  1.069E+00  1.143E+01  6.342E-02  1.356E+00
   1    4    5     2     1    1.5995E+01  3.0564E-01   1.5690E+01  0.000E+00  0.000E+00  0.000E+00  1.07285E+03  9.184E-01  1.200E+01  7.800E-02  1.306E+00
   1    5    6     2     2    1.5690E+01  2.3454E-01   1.5455E+01  0.000E+00  0.000E+00  0.000E+00  1.06742E+03  9.090E-01  1.200E+01  6.000E-02  1.303E+00
   1    6    6     2     3    1.5455E+01  2.3405E-01   1.5221E+01  0.000E+00  0.000E+00  0.000E+00  1.06269E+03  9.008E-01  1.200E+01  6.000E-02  1.300E+00
   1    7    6     2     4    1.5221E+01  2.3355E-01   1.4987E+01  0.000E+00  0.000E+00  0.000E+00  1.05797E+03  8.925E-01  1.200E+01  6.000E-02  1.297E+00
   1    8    6     2     5    1.4987E+01  2.3305E-01   1.4754E+01  0.000E+00  0.000E+00  0.000E+00  1.05324E+03  8.842E-01  1.200E+01  6.000E-02  1.295E+00
   1    3    5     3     1    2.0000E+00  2.8252E-01   1.7175E+00  0.000E+00  0.000E+00  0.000E+00  1.07555E+03  1.909E+00  9.636E+00  7.227E-02  1.955E+00
   1    3    6     3     2    1.7175E+00  2.4905E-01   1.4684E+00  0.000E+00  0.000E+00  0.000E+00  1.07264E+03  1.727E+00  8.909E+00  6.682E-02  1.864E+00
   1    3    7     3     3    1.4684E+00  1.9718E-01   1.2712E+00  0.000E+00  0.000E+00  0.000E+00  1.06987E+03  1.555E+00  8.218E+00  5.547E-02  1.777E+00
   1    4    8     3     4    1.2712E+00  2.2567E-01   1.0456E+00  0.000E+00  0.000E+00  0.000E+00  1.06682E+03  1.364E+00  7.455E+00  6.709E-02  1.682E+00
   1    5    8     3     5    1.0456E+00  1.5790E-01   8.8768E-01  0.000E+00  0.000E+00  0.000E+00  1.06362E+03  1.164E+00  6.655E+00  4.991E-02  1.582E+00
   1    6    8     3     6    8.8768E-01  5.5980E-02   8.3170E-01  0.000E+00  0.000E+00  0.000E+00  1.06158E+03  1.036E+00  6.145E+00  1.844E-02  1.518E+00
   1    5   10     4     1    1.0000E+01  9.0919E-02   9.9091E+00  0.000E+00  0.000E+00  0.000E+00  1.07836E+03  6.368E-01  1.000E+01  2.500E-02  1.212E+00
   1    5    9     4     2    9.9091E+00  1.8158E-01   9.7275E+00  0.000E+00  0.000E+00  0.000E+00  1.07154E+03  6.315E-01  1.000E+01  5.000E-02  1.211E+00
   1    6    8     4     3    9.7275E+00  1.2689E-01   9.6006E+00  0.000E+00  0.000E+00  0.000E+00  1.06381E+03  6.256E-01  1.000E+01  3.500E-02  1.209E+00
   1    6    8     5     1    1.0432E+01  2.2686E-01   1.0205E+01  0.000E+00  0.000E+00  0.000E+00  1.05868E+03  6.790E-01  1.542E+01  6.166E-02  1.226E+00
   1    7    7     5     2    1.0205E+01  2.7894E-01   9.9265E+00  0.000E+00  0.000E+00  0.000E+00  1.05417E+03  6.732E-01  1.519E+01  7.594E-02  1.224E+00
   1    8    7     5     3    9.9265E+00  1.9221E-01   9.7343E+00  0.000E+00  0.000E+00  0.000E+00  1.04992E+03  6.676E-01  1.497E+01  5.241E-02  1.223E+00
   1    8    6     5     4    9.7343E+00  1.3577E-01   9.5985E+00  0.000E+00  0.000E+00  0.000E+00  1.04691E+03  6.637E-01  1.482E+01  3.706E-02  1.221E+00
   1    9    6     6     1    2.4353E+01  2.5190E-01   2.4101E+01  0.000E+00  0.000E+00  0.000E+00  1.04393E+03  1.198E+00  1.200E+01  6.000E-02  1.399E+00
   1   10    7     6     2    2.4101E+01  2.5145E-01   2.3850E+01  0.000E+00  0.000E+00  0.000E+00  1.03937E+03  1.191E+00  1.200E+01  6.000E-02  1.397E+00
   1   11    7     6     3    2.3850E+01  2.5100E-01   2.3599E+01  0.000E+00  0.000E+00  0.000E+00  1.03482E+03  1.183E+00  1.200E+01  6.000E-02  1.394E+00
   1   12    7     6     4    2.3599E+01  2.5054E-01   2.3348E+01  0.000E+00  0.000E+00  0.000E+00  1.03027E+03  1.176E+00  1.200E+01  6.000E-02  1.392E+00
   1   13    7     6     5    2.3348E+01 -1.2980E-02   2.3361E+01  0.000E+00  0.000E+00  0.000E+00  1.02708E+03  1.172E+00  1.200E+01  2.400E-01 -1.803E-02
   1   14    9     7     1    1.5000E+02  1.3359E+00   1.4866E+02  0.000E+00  0.000E+00  0.000E+00  1.03987E+03  2.288E+00  5.529E+01  5.593E-01  7.962E-01
   1   13    8     7     2    1.4866E+02  1.8210E+00   1.4684E+02  0.000E+00  0.000E+00  0.000E+00  1.03478E+03  2.279E+00  5.526E+01  6.148E-01  9.873E-01
   1   13    7     7     3    1.4684E+02  1.4267E+00   1.4542E+02  0.000E+00  0.000E+00  0.000E+00  1.02969E+03  2.271E+00  5.522E+01  5.585E-01  8.516E-01
   1   13    6     8     1    1.6878E+02  8.6427E-01   1.6791E+02  0.000E+00  0.000E+00  0.000E+00  1.02482E+03  2.941E+00  4.265E+01  4.346E-01  6.629E-01
   1   13    5     8     2    1.6791E+02  1.1739E-01   1.6780E+02  0.000E+00  0.000E+00  0.000E+00  1.01856E+03  2.938E+00  4.260E+01  4.341E-01  9.013E-02
   1   13    4     8     3    1.6780E+02 -2.6539E+00   1.7045E+02  0.000E+00  0.000E+00  0.000E+00  1.01232E+03  2.946E+00  4.272E+01  4.354E+00 -2.032E-01
   1   13    3     8     4    1.7045E+02 -3.7553E+00   1.7420E+02  0.000E+00  0.000E+00  0.000E+00  1.00609E+03  2.967E+00  4.303E+01  4.384E+00 -2.855E-01
   1   13    2     8     5    1.7420E+02 -2.6119E+00   1.7682E+02  0.000E+00  0.000E+00  0.000E+00  9.99863E+02  2.988E+00  4.332E+01  4.415E+00 -1.972E-01
   1   13    1     8     6    1.7682E+02 -1.9990E+00   1.7882E+02  0.000E+00  0.000E+00  0.000E+00  9.94877E+02  3.002E+00  4.353E+01  2.662E+00 -2.503E-01
   1    8    6     9     1    0.0000E+00  0.0000E+00   0.0000E+00  0.000E+00  0.000E+00  0.000E+00  1.07875E+03  0.000E+00  4.000E+00  0.000E+00  1.000E+00
   1    8    5     9     2    0.0000E+00  0.0000E+00   0.0000E+00  0.000E+00  0.000E+00  0.000E+00  1.07825E+03  0.000E+00  4.000E+00  0.000E+00  1.000E+00





UNSATURATED ZONE PACKAGE VOLUMETRIC BUDGET FOR  TIME STEP    30 STRESS PERIOD   12
  ------------------------------------------------------------------------------



     CUMULATIVE VOLUMES      L**3       RATES FOR THIS TIME STEP      L**3/T
     ------------------                 ------------------------

           IN:                                      IN:
           ---                                      ---
        INFILTRATION =   527285458.2546          INFILTRATION =           4.4075

          OUT:                                     OUT:
          ----                                     ----
              UZF ET =   495658377.5315                UZF ET =           0.7250
        UZF RECHARGE =       73224.0000          UZF RECHARGE =       0.0000E+00

            IN - OUT =    31553856.7231              IN - OUT =           3.6825

          STORAGE:                                 STORAGE:
          --------                                 --------
      STORAGE CHANGE =    31553849.2243        STORAGE CHANGE =           3.6825

 PERCENT DISCREPANCY IS DIFFERENCE BETWEEN IN-OUT MINUS CHANGE IN STORAGE
 DIVIDED BY THE AVERAGE OF IN AND OUT TIMES 100

 PERCENT DISCREPANCY =           0.00     PERCENT DISCREPANCY =           0.00






1
  VOLUMETRIC BUDGET FOR AGRICULTURAL FIELDS AT TIME STEP   30, STRESS PERIOD  12
  ------------------------------------------------------------------------------

     CUMULATIVE VOLUMES      L**3       RATES FOR THIS TIME STEP      L**3/T
     ------------------                 ------------------------

           IN:                                      IN:
           ---                                      ---
               AG WELLS  =    44249552.0000                 AG WELLS  =           0.0000
      DIVERSION SEGMENTS =   355446592.0000        DIVERSION SEGMENTS =           0.0000
           GW IRRIGATION =           0.0000             GW IRRIGATION =           0.0000
           SW IRRIGATION =           0.0000             SW IRRIGATION =           0.0000
        SYSTEM LOSSES GW =           0.0000          SYSTEM LOSSES GW =           0.0000
        SYSTEM LOSSES SW =           0.0000          SYSTEM LOSSES SW =           0.0000

                TOTAL IN =   399696128.0000                  TOTAL IN =           0.0000

          OUT:                                     OUT:
          ----                                     ----
               AG WELLS  =           0.0000                 AG WELLS  =           0.0000
      DIVERSION SEGMENTS =           0.0000        DIVERSION SEGMENTS =           0.0000
           GW IRRIGATION =    44249552.0000             GW IRRIGATION =           0.0000
           SW IRRIGATION =   355453760.0000             SW IRRIGATION =           0.0000
        SYSTEM LOSSES GW =           0.0000          SYSTEM LOSSES GW =           0.0000
        SYSTEM LOSSES SW =           0.0000          SYSTEM LOSSES SW =           0.0000

               TOTAL OUT =   399703296.0000                 TOTAL OUT =           0.0000

                IN - OUT =       -7168.0000                  IN - OUT =           0.0000

     PERCENT DISCREPANCY =          -0.00         PERCENT DISCREPANCY =           0.00



1
  VOLUMETRIC BUDGET FOR ENTIRE MODEL AT END OF TIME STEP   30, STRESS PERIOD  12
  ------------------------------------------------------------------------------

     CUMULATIVE VOLUMES      L**3       RATES FOR THIS TIME STEP      L**3/T
     ------------------                 ------------------------

           IN:                                      IN:
           ---                                      ---
             STORAGE     =    76890048.0000               STORAGE     =           1.3010
       CONSTANT HEAD     =           0.0000         CONSTANT HEAD     =           0.0000
     HEAD DEP BOUNDS     =     8291058.0000       HEAD DEP BOUNDS     =           0.2858
      STREAM LEAKAGE     =   349286528.0000        STREAM LEAKAGE     =          11.2979
        UZF RECHARGE     =       73223.9531          UZF RECHARGE     =           0.0000
               GW ET     =           0.0000                 GW ET     =           0.0000
     SURFACE LEAKAGE     =           0.0000       SURFACE LEAKAGE     =           0.0000
           AG WELLS      =           0.0000             AG WELLS      =           0.0000

                TOTAL IN =   434540864.0000                  TOTAL IN =          12.8846

          OUT:                                     OUT:
          ----                                     ----
             STORAGE     =    66251708.0000               STORAGE     =           1.5617
       CONSTANT HEAD     =           0.0000         CONSTANT HEAD     =           0.0000
     HEAD DEP BOUNDS     =     8440546.0000       HEAD DEP BOUNDS     =           0.2899
      STREAM LEAKAGE     =   314052384.0000        STREAM LEAKAGE     =          11.0331
        UZF RECHARGE     =           0.0000          UZF RECHARGE     =           0.0000
               GW ET     =     1532013.0000                 GW ET     =           0.0000
     SURFACE LEAKAGE     =           0.0000       SURFACE LEAKAGE     =           0.0000
           AG WELLS      =    44249552.0000             AG WELLS      =           0.0000

               TOTAL OUT =   434526208.0000                 TOTAL OUT =          12.8847

                IN - OUT =       14656.0000                  IN - OUT =      -6.9618E-05

     PERCENT DISCREPANCY =           0.00         PERCENT DISCREPANCY =          -0.00






         TIME SUMMARY AT END OF TIME STEP   30 IN STRESS PERIOD   12
                    SECONDS     MINUTES      HOURS       DAYS        YEARS
                    -----------------------------------------------------------
   TIME STEP LENGTH  87667.      1461.1      24.352      1.0147     2.77799E-03
 STRESS PERIOD TIME 2.63000E+06  43833.      730.56      30.440     8.33397E-02
         TOTAL TIME 2.90163E+07 4.83606E+05  8060.1      335.84     0.91947    
1
1
                            STRESS PERIOD NO.   13, LENGTH =   2630000.    
                            -----------------------------------------------

                              NUMBER OF TIME STEPS =    30

                               MULTIPLIER FOR DELT =     1.000

                            INITIAL TIME STEP SIZE =   87666.66    

 REUSING NON-PARAMETER GHB CELLS FROM LAST STRESS PERIOD

      2 GHB CELLS

 REUSING STREAM SEGMENT DATA FROM LAST STRESS PERIOD



            AREAL INFILTRATION RATE
 READING ON UNIT   19 WITH FORMAT: (10F4.0)            

            1           2           3           4           5           6           7           8           9          10
 ........................................................................................................................
   1   1.2000E-09   0.000       0.000       0.000       0.000       0.000       0.000       0.000       0.000       0.000    
   2   2.1000E-09  2.0000E-09  8.0000E-10  8.5000E-09   0.000       0.000       0.000       0.000       0.000       0.000    
   3   5.0000E-10  1.1000E-09  8.8000E-09  5.5000E-09   0.000       0.000       0.000       0.000       0.000       0.000    
   4   8.5000E-09  1.1000E-09  1.1000E-09  1.1000E-09  2.0000E-09   0.000       0.000       0.000       0.000       0.000    
   5   8.5000E-09  1.1000E-09  1.1000E-09  1.1000E-09  1.1000E-09   0.000       0.000       0.000       0.000       0.000    
   6   8.5000E-09  5.2000E-09  2.1000E-09  1.1000E-09  1.5000E-09   0.000       0.000       0.000       0.000       0.000    
   7   8.5000E-09  5.2000E-09  2.1000E-09  1.2000E-09  2.0000E-09   0.000       0.000       0.000       0.000       0.000    
   8   5.0000E-10  5.2000E-09  2.1000E-09  1.2000E-09  5.0000E-09   0.000       0.000       0.000       0.000       0.000    
   9   5.0000E-10  5.2000E-09  2.1000E-09  1.2000E-09  5.0000E-09   0.000       0.000       0.000       0.000       0.000    
  10   5.0000E-10  5.2000E-09  2.1000E-09  1.2000E-09  5.8000E-09   0.000       0.000       0.000       0.000       0.000    
  11   1.0000E-10  1.1000E-09  1.1000E-09  1.2000E-09  5.0000E-09   0.000       0.000       0.000       0.000       0.000    
  12   1.1000E-09  1.1000E-09  1.1000E-09  1.1000E-09  2.0000E-09   0.000       0.000       0.000       0.000       0.000    
  13   1.1000E-09  2.2000E-09  2.2000E-09  2.1000E-09  1.0000E-09   0.000       0.000       0.000       0.000       0.000    
  14   2.0000E-10  5.5000E-09  5.5000E-09  5.2000E-09  1.0000E-09   0.000       0.000       0.000       0.000       0.000    
  15    0.000      8.8000E-09  8.8000E-09   0.000       0.000       0.000       0.000       0.000       0.000       0.000    

                  ET RATE =  5.000000E-10

 USING ET EXTINCTION DEPTH FROM PREVIOUS STRESS PERIOD. CURRENT PERIOD IS:      13

 USING EXTINCTION WATER CONTENT FROM PREVIOUS STRESS PERIOD. CURRENT PERIOD IS:      13

 USING AIR ENTRY PRESSURE FROM PREVIOUS STRESS PERIOD. CURRENT PERIOD IS:      13

 USING ROOT PRESSURE HEAD FROM PREVIOUS STRESS PERIOD. CURRENT PERIOD IS:      13

 USING ROOT ACTIVITY FROM PREVIOUS STRESS PERIOD. CURRENT PERIOD IS:      13

 PROCESSING AG STRESS PERIOD DATA

 READING AG STRESS PERIOD DATA

 READING IRRIGATION SEGMENT

 READING IRRIGATION WELL

 READING SUPPLEMENTAL WELL

 END PROCESSING AG STRESS PERIOD DATA OPTIONS
 
 SOLVING FOR HEAD 
                                                   Max.-Head-Change                         Max.-Flux-Residual
  Residual-Control   Outer-Iter.   Inner-Iter.     Column Row Layer    Maximum-Head-Change  Column Row Layer    Maximum-Flux-Residual          L2-NORM 
          0                 1           2             4    7     1       0.3810363175E-02       4    7    1         0.2007109717E+00      0.4672585929E+00
          0                 2           2             4    7     1      -0.3706448410E-03       4    7    1        -0.2007112505E-01      0.4665818772E-01
          0                 3           1             4    7     1       0.2523953565E-04       4    7    1         0.1404979088E-02      0.3259704697E-02

    ------------------------------------------------
       NWT REQUIRED            3 OUTER ITERATIONS 
       AND A TOTAL OF          5 INNER ITERATIONS.
    ------------------------------------------------

 NO OUTPUT CONTROL FOR STRESS PERIOD   13   TIME STEP    1
 
 SOLVING FOR HEAD 
                                                   Max.-Head-Change                         Max.-Flux-Residual
  Residual-Control   Outer-Iter.   Inner-Iter.     Column Row Layer    Maximum-Head-Change  Column Row Layer    Maximum-Flux-Residual          L2-NORM 
          0                 1           2             4    7     1       0.3758785538E-02       4    7    1         0.1979784630E+00      0.4608358146E+00
          0                 2           2             4    7     1      -0.3656277310E-03       4    7    1        -0.1979787332E-01      0.4602444796E-01
          0                 3           1             4    7     1       0.2489788926E-04       4    7    1         0.1385851483E-02      0.3216414095E-02

    ------------------------------------------------
       NWT REQUIRED            3 OUTER ITERATIONS 
       AND A TOTAL OF          5 INNER ITERATIONS.
    ------------------------------------------------

 NO OUTPUT CONTROL FOR STRESS PERIOD   13   TIME STEP    2
 
 SOLVING FOR HEAD 
                                                   Max.-Head-Change                         Max.-Flux-Residual
  Residual-Control   Outer-Iter.   Inner-Iter.     Column Row Layer    Maximum-Head-Change  Column Row Layer    Maximum-Flux-Residual          L2-NORM 
          0                 1           2             4    7     1       0.3708306827E-02       4    7    1         0.1953042194E+00      0.4547266033E+00
          0                 2           2             4    7     1      -0.3607175166E-03       4    7    1        -0.1953044813E-01      0.4542090950E-01
          0                 3           1             4    7     1       0.2456352199E-04       4    7    1         0.1367131709E-02      0.3174808703E-02

    ------------------------------------------------
       NWT REQUIRED            3 OUTER ITERATIONS 
       AND A TOTAL OF          5 INNER ITERATIONS.
    ------------------------------------------------

 NO OUTPUT CONTROL FOR STRESS PERIOD   13   TIME STEP    3
 
 SOLVING FOR HEAD 
                                                   Max.-Head-Change                         Max.-Flux-Residual
  Residual-Control   Outer-Iter.   Inner-Iter.     Column Row Layer    Maximum-Head-Change  Column Row Layer    Maximum-Flux-Residual          L2-NORM 
          0                 1           2             4    7     1       0.3658892497E-02       4    7    1         0.1926869539E+00      0.4488877651E+00
          0                 2           2             4    7     1      -0.3559108375E-03       4    7    1        -0.1926872074E-01      0.4484327170E-01
          0                 3           1             4    7     1       0.2423620499E-04       4    7    1         0.1348810796E-02      0.3134827666E-02

    ------------------------------------------------
       NWT REQUIRED            3 OUTER ITERATIONS 
       AND A TOTAL OF          5 INNER ITERATIONS.
    ------------------------------------------------

 NO OUTPUT CONTROL FOR STRESS PERIOD   13   TIME STEP    4
 
 SOLVING FOR HEAD 
                                                   Max.-Head-Change                         Max.-Flux-Residual
  Residual-Control   Outer-Iter.   Inner-Iter.     Column Row Layer    Maximum-Head-Change  Column Row Layer    Maximum-Flux-Residual          L2-NORM 
          0                 1           2             4    7     1       0.3610245675E-02       4    7    1         0.1901100632E+00      0.4432811223E+00
          0                 2           2             4    7     1      -0.3511788171E-03       4    7    1        -0.1901103090E-01      0.4428785869E-01
          0                 3           1             4    7     1       0.2391397196E-04       4    7    1         0.1330772509E-02      0.3096189373E-02

    ------------------------------------------------
       NWT REQUIRED            3 OUTER ITERATIONS 
       AND A TOTAL OF          5 INNER ITERATIONS.
    ------------------------------------------------

 NO OUTPUT CONTROL FOR STRESS PERIOD   13   TIME STEP    5
 
 SOLVING FOR HEAD 
                                                   Max.-Head-Change                         Max.-Flux-Residual
  Residual-Control   Outer-Iter.   Inner-Iter.     Column Row Layer    Maximum-Head-Change  Column Row Layer    Maximum-Flux-Residual          L2-NORM 
          0                 1           2             4    7     1       0.3562619658E-02       4    7    1         0.1875877789E+00      0.4378915454E+00
          0                 2           2             4    7     1      -0.3465460927E-03       4    7    1        -0.1875880170E-01      0.4375407623E-01
          0                 3           1             4    7     1       0.2359850069E-04       4    7    1         0.1313116456E-02      0.3059677859E-02

    ------------------------------------------------
       NWT REQUIRED            3 OUTER ITERATIONS 
       AND A TOTAL OF          5 INNER ITERATIONS.
    ------------------------------------------------

 NO OUTPUT CONTROL FOR STRESS PERIOD   13   TIME STEP    6
 
 SOLVING FOR HEAD 
                                                   Max.-Head-Change                         Max.-Flux-Residual
  Residual-Control   Outer-Iter.   Inner-Iter.     Column Row Layer    Maximum-Head-Change  Column Row Layer    Maximum-Flux-Residual          L2-NORM 
          0                 1           2             4    7     1       0.3515990984E-02       4    7    1         0.1851184222E+00      0.4327066101E+00
          0                 2           2             4    7     1      -0.3420103840E-03       4    7    1        -0.1851186532E-01      0.4323956937E-01
          0                 3           1             4    7     1       0.2328963568E-04       4    7    1         0.1295830912E-02      0.3023907863E-02

    ------------------------------------------------
       NWT REQUIRED            3 OUTER ITERATIONS 
       AND A TOTAL OF          5 INNER ITERATIONS.
    ------------------------------------------------

 NO OUTPUT CONTROL FOR STRESS PERIOD   13   TIME STEP    7
 
 SOLVING FOR HEAD 
                                                   Max.-Head-Change                         Max.-Flux-Residual
  Residual-Control   Outer-Iter.   Inner-Iter.     Column Row Layer    Maximum-Head-Change  Column Row Layer    Maximum-Flux-Residual          L2-NORM 
          0                 1           2             4    7     1       0.3470049626E-02       4    7    1         0.1826859641E+00      0.4276802978E+00
          0                 2           2             4    7     1      -0.3375415323E-03       4    7    1        -0.1826861880E-01      0.4274067681E-01
          0                 3           1             4    7     1       0.2298532427E-04       4    7    1         0.1278803666E-02      0.2989353996E-02

    ------------------------------------------------
       NWT REQUIRED            3 OUTER ITERATIONS 
       AND A TOTAL OF          5 INNER ITERATIONS.
    ------------------------------------------------

 NO OUTPUT CONTROL FOR STRESS PERIOD   13   TIME STEP    8
 
 SOLVING FOR HEAD 
                                                   Max.-Head-Change                         Max.-Flux-Residual
  Residual-Control   Outer-Iter.   Inner-Iter.     Column Row Layer    Maximum-Head-Change  Column Row Layer    Maximum-Flux-Residual          L2-NORM 
          0                 1           2             4    7     1       0.3425063987E-02       4    7    1         0.1803039547E+00      0.4228288889E+00
          0                 2           2             4    7     1      -0.3331656463E-03       4    7    1        -0.1803041719E-01      0.4225878506E-01
          0                 3           1             4    7     1       0.2268734220E-04       4    7    1         0.1262129530E-02      0.2955822467E-02

    ------------------------------------------------
       NWT REQUIRED            3 OUTER ITERATIONS 
       AND A TOTAL OF          5 INNER ITERATIONS.
    ------------------------------------------------

 NO OUTPUT CONTROL FOR STRESS PERIOD   13   TIME STEP    9
 
 SOLVING FOR HEAD 
                                                   Max.-Head-Change                         Max.-Flux-Residual
  Residual-Control   Outer-Iter.   Inner-Iter.     Column Row Layer    Maximum-Head-Change  Column Row Layer    Maximum-Flux-Residual          L2-NORM 
          0                 1           2             4    7     1       0.3380734828E-02       4    7    1         0.1779566858E+00      0.4181218711E+00
          0                 2           2             4    7     1      -0.3288536186E-03       4    7    1        -0.1779568965E-01      0.4179060009E-01
          0                 3           1             4    7     1       0.2239370925E-04       4    7    1         0.1245698619E-02      0.2923287616E-02

    ------------------------------------------------
       NWT REQUIRED            3 OUTER ITERATIONS 
       AND A TOTAL OF          5 INNER ITERATIONS.
    ------------------------------------------------

 NO OUTPUT CONTROL FOR STRESS PERIOD   13   TIME STEP   10
 
 SOLVING FOR HEAD 
                                                   Max.-Head-Change                         Max.-Flux-Residual
  Residual-Control   Outer-Iter.   Inner-Iter.     Column Row Layer    Maximum-Head-Change  Column Row Layer    Maximum-Flux-Residual          L2-NORM 
          0                 1           2             4    7     1       0.3337323852E-02       4    7    1         0.1756582672E+00      0.4135629223E+00
          0                 2           2             4    7     1      -0.3246309047E-03       4    7    1        -0.1756584713E-01      0.4133641164E-01
          0                 3           1             4    7     1       0.2210615809E-04       4    7    1         0.1229609634E-02      0.2891032439E-02

    ------------------------------------------------
       NWT REQUIRED            3 OUTER ITERATIONS 
       AND A TOTAL OF          5 INNER ITERATIONS.
    ------------------------------------------------

 NO OUTPUT CONTROL FOR STRESS PERIOD   13   TIME STEP   11
 
 SOLVING FOR HEAD 
                                                   Max.-Head-Change                         Max.-Flux-Residual
  Residual-Control   Outer-Iter.   Inner-Iter.     Column Row Layer    Maximum-Head-Change  Column Row Layer    Maximum-Flux-Residual          L2-NORM 
          0                 1           2             4    7     1       0.3294796563E-02       4    7    1         0.1734074553E+00      0.4091125465E+00
          0                 2           2             4    7     1      -0.3204941505E-03       4    7    1        -0.1734076536E-01      0.4089428276E-01
          0                 3           1             4    7     1       0.2182446057E-04       4    7    1         0.1213853898E-02      0.2860892115E-02

    ------------------------------------------------
       NWT REQUIRED            3 OUTER ITERATIONS 
       AND A TOTAL OF          5 INNER ITERATIONS.
    ------------------------------------------------

 NO OUTPUT CONTROL FOR STRESS PERIOD   13   TIME STEP   12
 
 SOLVING FOR HEAD 
                                                   Max.-Head-Change                         Max.-Flux-Residual
  Residual-Control   Outer-Iter.   Inner-Iter.     Column Row Layer    Maximum-Head-Change  Column Row Layer    Maximum-Flux-Residual          L2-NORM 
          0                 1           2             4    7     1       0.3253135343E-02       4    7    1         0.1712024615E+00      0.4047929612E+00
          0                 2           2             4    7     1      -0.3164416415E-03       4    7    1        -0.1712026539E-01      0.4046433777E-01
          0                 3           1             4    7     1       0.2154850000E-04       4    7    1         0.1198418909E-02      0.2831153585E-02

    ------------------------------------------------
       NWT REQUIRED            3 OUTER ITERATIONS 
       AND A TOTAL OF          5 INNER ITERATIONS.
    ------------------------------------------------

 NO OUTPUT CONTROL FOR STRESS PERIOD   13   TIME STEP   13
 
 SOLVING FOR HEAD 
                                                   Max.-Head-Change                         Max.-Flux-Residual
  Residual-Control   Outer-Iter.   Inner-Iter.     Column Row Layer    Maximum-Head-Change  Column Row Layer    Maximum-Flux-Residual          L2-NORM 
          0                 1           2             4    7     1       0.3212051282E-02       4    7    1         0.1690275592E+00      0.4005864686E+00
          0                 2           2             4    7     1      -0.3124452738E-03       4    7    1        -0.1690277458E-01      0.4004526724E-01
          0                 3           1             4    7     1       0.2127636195E-04       4    7    1         0.1183194541E-02      0.2801888416E-02

    ------------------------------------------------
       NWT REQUIRED            3 OUTER ITERATIONS 
       AND A TOTAL OF          5 INNER ITERATIONS.
    ------------------------------------------------

 NO OUTPUT CONTROL FOR STRESS PERIOD   13   TIME STEP   14
 
 SOLVING FOR HEAD 
                                                   Max.-Head-Change                         Max.-Flux-Residual
  Residual-Control   Outer-Iter.   Inner-Iter.     Column Row Layer    Maximum-Head-Change  Column Row Layer    Maximum-Flux-Residual          L2-NORM 
          0                 1           2             4    7     1       0.3171797231E-02       4    7    1         0.1668973951E+00      0.3964782832E+00
          0                 2           2             4    7     1      -0.3085296442E-03       4    7    1        -0.1668975762E-01      0.3963586493E-01
          0                 3           1             4    7     1       0.2100972206E-04       4    7    1         0.1168283346E-02      0.2773360285E-02

    ------------------------------------------------
       NWT REQUIRED            3 OUTER ITERATIONS 
       AND A TOTAL OF          5 INNER ITERATIONS.
    ------------------------------------------------

 NO OUTPUT CONTROL FOR STRESS PERIOD   13   TIME STEP   15
 
 SOLVING FOR HEAD 
                                                   Max.-Head-Change                         Max.-Flux-Residual
  Residual-Control   Outer-Iter.   Inner-Iter.     Column Row Layer    Maximum-Head-Change  Column Row Layer    Maximum-Flux-Residual          L2-NORM 
          0                 1           2             4    7     1       0.3132354383E-02       4    7    1         0.1648102661E+00      0.3924750440E+00
          0                 2           2             4    7     1      -0.3046929236E-03       4    7    1        -0.1648104422E-01      0.3923702728E-01
          0                 3           1             4    7     1       0.2074845583E-04       4    7    1         0.1153673416E-02      0.2745688298E-02

    ------------------------------------------------
       NWT REQUIRED            3 OUTER ITERATIONS 
       AND A TOTAL OF          5 INNER ITERATIONS.
    ------------------------------------------------

 NO OUTPUT CONTROL FOR STRESS PERIOD   13   TIME STEP   16
 
 SOLVING FOR HEAD 
                                                   Max.-Head-Change                         Max.-Flux-Residual
  Residual-Control   Outer-Iter.   Inner-Iter.     Column Row Layer    Maximum-Head-Change  Column Row Layer    Maximum-Flux-Residual          L2-NORM 
          0                 1           2             4    7     1       0.3093430396E-02       4    7    1         0.1627503835E+00      0.3885548413E+00
          0                 2           2             4    7     1      -0.3009066736E-03       4    7    1        -0.1627505545E-01      0.3884586147E-01
          0                 3           1             4    7     1       0.2049062681E-04       4    7    1         0.1139254222E-02      0.2718270061E-02

    ------------------------------------------------
       NWT REQUIRED            3 OUTER ITERATIONS 
       AND A TOTAL OF          5 INNER ITERATIONS.
    ------------------------------------------------

 NO OUTPUT CONTROL FOR STRESS PERIOD   13   TIME STEP   17
 
 SOLVING FOR HEAD 
                                                   Max.-Head-Change                         Max.-Flux-Residual
  Residual-Control   Outer-Iter.   Inner-Iter.     Column Row Layer    Maximum-Head-Change  Column Row Layer    Maximum-Flux-Residual          L2-NORM 
          0                 1           2             4    7     1       0.3055287087E-02       4    7    1         0.1607322167E+00      0.3847197962E+00
          0                 2           2             4    7     1      -0.2971963624E-03       4    7    1        -0.1607323826E-01      0.3846345402E-01
          0                 3           1             4    7     1       0.2023796839E-04       4    7    1         0.1125127015E-02      0.2691612196E-02

    ------------------------------------------------
       NWT REQUIRED            3 OUTER ITERATIONS 
       AND A TOTAL OF          5 INNER ITERATIONS.
    ------------------------------------------------

 NO OUTPUT CONTROL FOR STRESS PERIOD   13   TIME STEP   18
 
 SOLVING FOR HEAD 
                                                   Max.-Head-Change                         Max.-Flux-Residual
  Residual-Control   Outer-Iter.   Inner-Iter.     Column Row Layer    Maximum-Head-Change  Column Row Layer    Maximum-Flux-Residual          L2-NORM 
          0                 1           2             4    7     1       0.3017906880E-02       4    7    1         0.1587545271E+00      0.3809778853E+00
          0                 2           2             4    7     1      -0.2935602805E-03       4    7    1        -0.1587546882E-01      0.3809013399E-01
          0                 3           1             4    7     1       0.1999036460E-04       4    7    1         0.1111283149E-02      0.2665644094E-02

    ------------------------------------------------
       NWT REQUIRED            3 OUTER ITERATIONS 
       AND A TOTAL OF          5 INNER ITERATIONS.
    ------------------------------------------------

 NO OUTPUT CONTROL FOR STRESS PERIOD   13   TIME STEP   19
 
 SOLVING FOR HEAD 
                                                   Max.-Head-Change                         Max.-Flux-Residual
  Residual-Control   Outer-Iter.   Inner-Iter.     Column Row Layer    Maximum-Head-Change  Column Row Layer    Maximum-Flux-Residual          L2-NORM 
          0                 1           2             4    7     1       0.2980995095E-02       4    7    1         0.1568015898E+00      0.3773057201E+00
          0                 2           2             4    7     1      -0.2899697633E-03       4    7    1        -0.1568017463E-01      0.3772363966E-01
          0                 3           1             4    7     1       0.1974586359E-04       4    7    1         0.1097612542E-02      0.2640010636E-02

    ------------------------------------------------
       NWT REQUIRED            3 OUTER ITERATIONS 
       AND A TOTAL OF          5 INNER ITERATIONS.
    ------------------------------------------------

 NO OUTPUT CONTROL FOR STRESS PERIOD   13   TIME STEP   20
 
 SOLVING FOR HEAD 
                                                   Max.-Head-Change                         Max.-Flux-Residual
  Residual-Control   Outer-Iter.   Inner-Iter.     Column Row Layer    Maximum-Head-Change  Column Row Layer    Maximum-Flux-Residual          L2-NORM 
          0                 1           2             4    7     1       0.2944814355E-02       4    7    1         0.1548877533E+00      0.3737025550E+00
          0                 2           2             4    7     1      -0.2864503578E-03       4    7    1        -0.1548879054E-01      0.3736404256E-01
          0                 3           1             4    7     1       0.1950620540E-04       4    7    1         0.1084215671E-02      0.2614940649E-02

    ------------------------------------------------
       NWT REQUIRED            3 OUTER ITERATIONS 
       AND A TOTAL OF          5 INNER ITERATIONS.
    ------------------------------------------------

 NO OUTPUT CONTROL FOR STRESS PERIOD   13   TIME STEP   21
 
 SOLVING FOR HEAD 
                                                   Max.-Head-Change                         Max.-Flux-Residual
  Residual-Control   Outer-Iter.   Inner-Iter.     Column Row Layer    Maximum-Head-Change  Column Row Layer    Maximum-Flux-Residual          L2-NORM 
          0                 1           2             4    7     1       0.2909348862E-02       4    7    1         0.1530118206E+00      0.3701841754E+00
          0                 2           2             4    7     1      -0.2830005261E-03       4    7    1        -0.1530119683E-01      0.3701281221E-01
          0                 3           1             4    7     1       0.1927128493E-04       4    7    1         0.1071084113E-02      0.2590429305E-02

    ------------------------------------------------
       NWT REQUIRED            3 OUTER ITERATIONS 
       AND A TOTAL OF          5 INNER ITERATIONS.
    ------------------------------------------------

 NO OUTPUT CONTROL FOR STRESS PERIOD   13   TIME STEP   22
 
 SOLVING FOR HEAD 
                                                   Max.-Head-Change                         Max.-Flux-Residual
  Residual-Control   Outer-Iter.   Inner-Iter.     Column Row Layer    Maximum-Head-Change  Column Row Layer    Maximum-Flux-Residual          L2-NORM 
          0                 1           2             4    7     1       0.2874576491E-02       4    7    1         0.1511729726E+00      0.3667308745E+00
          0                 2           2             4    7     1      -0.2796181159E-03       4    7    1        -0.1511731160E-01      0.3666804226E-01
          0                 3           1             4    7     1       0.1904095497E-04       4    7    1         0.1058212132E-02      0.2566320599E-02

    ------------------------------------------------
       NWT REQUIRED            3 OUTER ITERATIONS 
       AND A TOTAL OF          5 INNER ITERATIONS.
    ------------------------------------------------

 NO OUTPUT CONTROL FOR STRESS PERIOD   13   TIME STEP   23
 
 SOLVING FOR HEAD 
                                                   Max.-Head-Change                         Max.-Flux-Residual
  Residual-Control   Outer-Iter.   Inner-Iter.     Column Row Layer    Maximum-Head-Change  Column Row Layer    Maximum-Flux-Residual          L2-NORM 
          0                 1           2             4    7     1       0.2840210348E-02       4    7    1         0.1493552481E+00      0.3633424197E+00
          0                 2           2             4    7     1      -0.2762752217E-03       4    7    1        -0.1493553878E-01      0.3632959932E-01
          0                 3           1             4    7     1       0.1881331623E-04       4    7    1         0.1045488027E-02      0.2542597146E-02

    ------------------------------------------------
       NWT REQUIRED            3 OUTER ITERATIONS 
       AND A TOTAL OF          5 INNER ITERATIONS.
    ------------------------------------------------

 NO OUTPUT CONTROL FOR STRESS PERIOD   13   TIME STEP   24
 
 SOLVING FOR HEAD 
                                                   Max.-Head-Change                         Max.-Flux-Residual
  Residual-Control   Outer-Iter.   Inner-Iter.     Column Row Layer    Maximum-Head-Change  Column Row Layer    Maximum-Flux-Residual          L2-NORM 
          0                 1           2             4    7     1       0.2806787016E-02       4    7    1         0.1475882143E+00      0.3600221394E+00
          0                 2           2             4    7     1      -0.2730240372E-03       4    7    1        -0.1475883501E-01      0.3599800853E-01
          0                 3           1             4    7     1       0.1859192259E-04       4    7    1         0.1033118751E-02      0.2519422505E-02

    ------------------------------------------------
       NWT REQUIRED            3 OUTER ITERATIONS 
       AND A TOTAL OF          5 INNER ITERATIONS.
    ------------------------------------------------

 NO OUTPUT CONTROL FOR STRESS PERIOD   13   TIME STEP   25
 
 SOLVING FOR HEAD 
                                                   Max.-Head-Change                         Max.-Flux-Residual
  Residual-Control   Outer-Iter.   Inner-Iter.     Column Row Layer    Maximum-Head-Change  Column Row Layer    Maximum-Flux-Residual          L2-NORM 
          0                 1           2             4    7     1       0.2773729760E-02       4    7    1         0.1458404358E+00      0.3567575586E+00
          0                 2           2             4    7     1      -0.2698084622E-03       4    7    1        -0.1458405678E-01      0.3567188012E-01
          0                 3           1             4    7     1       0.1837295437E-04       4    7    1         0.1020884293E-02      0.2496647081E-02

    ------------------------------------------------
       NWT REQUIRED            3 OUTER ITERATIONS 
       AND A TOTAL OF          5 INNER ITERATIONS.
    ------------------------------------------------

 NO OUTPUT CONTROL FOR STRESS PERIOD   13   TIME STEP   26
 
 SOLVING FOR HEAD 
                                                   Max.-Head-Change                         Max.-Flux-Residual
  Residual-Control   Outer-Iter.   Inner-Iter.     Column Row Layer    Maximum-Head-Change  Column Row Layer    Maximum-Flux-Residual          L2-NORM 
          0                 1           2             4    7     1       0.2741042738E-02       4    7    1         0.1441116378E+00      0.3535568863E+00
          0                 2           2             4    7     1      -0.2666289010E-03       4    7    1        -0.1441117662E-01      0.3535214527E-01
          0                 3           1             4    7     1       0.1815643785E-04       4    7    1         0.1008782673E-02      0.2474305434E-02

    ------------------------------------------------
       NWT REQUIRED            3 OUTER ITERATIONS 
       AND A TOTAL OF          5 INNER ITERATIONS.
    ------------------------------------------------

 NO OUTPUT CONTROL FOR STRESS PERIOD   13   TIME STEP   27
 
 SOLVING FOR HEAD 
                                                   Max.-Head-Change                         Max.-Flux-Residual
  Residual-Control   Outer-Iter.   Inner-Iter.     Column Row Layer    Maximum-Head-Change  Column Row Layer    Maximum-Flux-Residual          L2-NORM 
          0                 1           2             4    7     1       0.2709262435E-02       4    7    1         0.1424316648E+00      0.3504238693E+00
          0                 2           2             4    7     1      -0.2635375389E-03       4    7    1        -0.1424317896E-01      0.3503919512E-01
          0                 3           1             4    7     1       0.1794592810E-04       4    7    1         0.9970228484E-03      0.2452424136E-02

    ------------------------------------------------
       NWT REQUIRED            3 OUTER ITERATIONS 
       AND A TOTAL OF          5 INNER ITERATIONS.
    ------------------------------------------------

 NO OUTPUT CONTROL FOR STRESS PERIOD   13   TIME STEP   28
 
 SOLVING FOR HEAD 
                                                   Max.-Head-Change                         Max.-Flux-Residual
  Residual-Control   Outer-Iter.   Inner-Iter.     Column Row Layer    Maximum-Head-Change  Column Row Layer    Maximum-Flux-Residual          L2-NORM 
          0                 1           2             4    7     1       0.2677812654E-02       4    7    1         0.1407690752E+00      0.3473298906E+00
          0                 2           2             4    7     1      -0.2604783285E-03       4    7    1        -0.1407691969E-01      0.3473003128E-01
          0                 3           1             4    7     1       0.1773760710E-04       4    7    1         0.9853847037E-03      0.2430833319E-02

    ------------------------------------------------
       NWT REQUIRED            3 OUTER ITERATIONS 
       AND A TOTAL OF          5 INNER ITERATIONS.
    ------------------------------------------------

 NO OUTPUT CONTROL FOR STRESS PERIOD   13   TIME STEP   29
 
 SOLVING FOR HEAD 
                                                   Max.-Head-Change                         Max.-Flux-Residual
  Residual-Control   Outer-Iter.   Inner-Iter.     Column Row Layer    Maximum-Head-Change  Column Row Layer    Maximum-Flux-Residual          L2-NORM 
          0                 1           2             4    7     1       0.2646966089E-02       4    7    1         0.1391384372E+00      0.3443007649E+00
          0                 2           2             4    7     1      -0.2574777933E-03       4    7    1        -0.1391385553E-01      0.3442740405E-01
          0                 3           1             4    7     1       0.1753328162E-04       4    7    1         0.9739701970E-03      0.2409688738E-02

    ------------------------------------------------
       NWT REQUIRED            3 OUTER ITERATIONS 
       AND A TOTAL OF          5 INNER ITERATIONS.
    ------------------------------------------------

 NO OUTPUT CONTROL FOR STRESS PERIOD   13   TIME STEP   30



 STREAM LISTING     PERIOD     13   STEP       30

 LAYER ROW COL. STREAM  RCH.  FLOW INTO     FLOW TO   FLOW OUT OF   OVRLND.     DIRECT     STREAM       STREAM     STREAM     STREAM   STREAMBED  STREAMBED
                SEG.NO.  NO.  STRM. RCH.    AQUIFER    STRM. RCH.    RUNOFF     PRECIP       ET          HEAD       DEPTH      WIDTH   CONDCTNC.   GRADIENT

   1    1    1     1     1    1.7250E+01  2.0269E-01   1.7047E+01  0.000E+00  0.000E+00  0.000E+00  1.09410E+03  1.052E+00  1.112E+01  5.002E-02  1.351E+00
   1    2    2     1     2    1.7047E+01  3.1258E-01   1.6735E+01  0.000E+00  0.000E+00  0.000E+00  1.08911E+03  1.047E+00  1.103E+01  7.723E-02  1.349E+00
   1    3    3     1     3    1.6735E+01  2.6529E-01   1.6469E+01  0.000E+00  0.000E+00  0.000E+00  1.08346E+03  1.042E+00  1.094E+01  6.563E-02  1.347E+00
   1    3    4     1     4    1.6469E+01  2.4324E-01   1.6226E+01  0.000E+00  0.000E+00  0.000E+00  1.07845E+03  1.038E+00  1.085E+01  6.024E-02  1.346E+00
   1    4    5     2     1    1.4226E+01  3.0073E-01   1.3925E+01  0.000E+00  0.000E+00  0.000E+00  1.07279E+03  8.555E-01  1.200E+01  7.800E-02  1.285E+00
   1    5    6     2     2    1.3925E+01  2.3075E-01   1.3695E+01  0.000E+00  0.000E+00  0.000E+00  1.06736E+03  8.458E-01  1.200E+01  6.000E-02  1.282E+00
   1    6    6     2     3    1.3695E+01  2.3024E-01   1.3464E+01  0.000E+00  0.000E+00  0.000E+00  1.06263E+03  8.373E-01  1.200E+01  6.000E-02  1.279E+00
   1    7    6     2     4    1.3464E+01  2.2972E-01   1.3235E+01  0.000E+00  0.000E+00  0.000E+00  1.05790E+03  8.287E-01  1.200E+01  6.000E-02  1.276E+00
   1    8    6     2     5    1.3235E+01  2.2921E-01   1.3005E+01  0.000E+00  0.000E+00  0.000E+00  1.05318E+03  8.202E-01  1.200E+01  6.000E-02  1.273E+00
   1    3    5     3     1    2.0000E+00  2.8252E-01   1.7175E+00  0.000E+00  0.000E+00  0.000E+00  1.07555E+03  1.909E+00  9.636E+00  7.227E-02  1.955E+00
   1    3    6     3     2    1.7175E+00  2.4905E-01   1.4684E+00  0.000E+00  0.000E+00  0.000E+00  1.07264E+03  1.727E+00  8.909E+00  6.682E-02  1.864E+00
   1    3    7     3     3    1.4684E+00  1.9718E-01   1.2712E+00  0.000E+00  0.000E+00  0.000E+00  1.06987E+03  1.555E+00  8.218E+00  5.547E-02  1.777E+00
   1    4    8     3     4    1.2712E+00  2.2567E-01   1.0456E+00  0.000E+00  0.000E+00  0.000E+00  1.06682E+03  1.364E+00  7.455E+00  6.709E-02  1.682E+00
   1    5    8     3     5    1.0456E+00  1.5790E-01   8.8768E-01  0.000E+00  0.000E+00  0.000E+00  1.06362E+03  1.164E+00  6.655E+00  4.991E-02  1.582E+00
   1    6    8     3     6    8.8768E-01  5.5980E-02   8.3170E-01  0.000E+00  0.000E+00  0.000E+00  1.06158E+03  1.036E+00  6.145E+00  1.844E-02  1.518E+00
   1    5   10     4     1    1.0000E+01  9.0919E-02   9.9091E+00  0.000E+00  0.000E+00  0.000E+00  1.07836E+03  6.368E-01  1.000E+01  2.500E-02  1.212E+00
   1    5    9     4     2    9.9091E+00  1.8158E-01   9.7275E+00  0.000E+00  0.000E+00  0.000E+00  1.07154E+03  6.315E-01  1.000E+01  5.000E-02  1.211E+00
   1    6    8     4     3    9.7275E+00  1.2689E-01   9.6006E+00  0.000E+00  0.000E+00  0.000E+00  1.06381E+03  6.256E-01  1.000E+01  3.500E-02  1.209E+00
   1    6    8     5     1    1.0432E+01  2.2686E-01   1.0205E+01  0.000E+00  0.000E+00  0.000E+00  1.05868E+03  6.790E-01  1.542E+01  6.166E-02  1.226E+00
   1    7    7     5     2    1.0205E+01  2.7894E-01   9.9265E+00  0.000E+00  0.000E+00  0.000E+00  1.05417E+03  6.732E-01  1.519E+01  7.594E-02  1.224E+00
   1    8    7     5     3    9.9265E+00  1.9221E-01   9.7343E+00  0.000E+00  0.000E+00  0.000E+00  1.04992E+03  6.676E-01  1.497E+01  5.241E-02  1.223E+00
   1    8    6     5     4    9.7343E+00  1.3577E-01   9.5985E+00  0.000E+00  0.000E+00  0.000E+00  1.04691E+03  6.637E-01  1.482E+01  3.706E-02  1.221E+00
   1    9    6     6     1    2.2604E+01  2.4874E-01   2.2355E+01  0.000E+00  0.000E+00  0.000E+00  1.04387E+03  1.146E+00  1.200E+01  6.000E-02  1.382E+00
   1   10    7     6     2    2.2355E+01  2.4828E-01   2.2107E+01  0.000E+00  0.000E+00  0.000E+00  1.03932E+03  1.138E+00  1.200E+01  6.000E-02  1.379E+00
   1   11    7     6     3    2.2107E+01  2.4782E-01   2.1859E+01  0.000E+00  0.000E+00  0.000E+00  1.03477E+03  1.130E+00  1.200E+01  6.000E-02  1.377E+00
   1   12    7     6     4    2.1859E+01  2.4736E-01   2.1612E+01  0.000E+00  0.000E+00  0.000E+00  1.03021E+03  1.123E+00  1.200E+01  6.000E-02  1.374E+00
   1   13    7     6     5    2.1612E+01 -2.4122E-02   2.1636E+01  0.000E+00  0.000E+00  0.000E+00  1.02703E+03  1.119E+00  1.200E+01  2.400E-01 -3.350E-02
   1   14    9     7     1    1.5000E+02  1.3359E+00   1.4866E+02  0.000E+00  0.000E+00  0.000E+00  1.03987E+03  2.288E+00  5.529E+01  5.593E-01  7.962E-01
   1   13    8     7     2    1.4866E+02  1.8209E+00   1.4684E+02  0.000E+00  0.000E+00  0.000E+00  1.03478E+03  2.279E+00  5.526E+01  6.148E-01  9.873E-01
   1   13    7     7     3    1.4684E+02  1.4303E+00   1.4541E+02  0.000E+00  0.000E+00  0.000E+00  1.02969E+03  2.271E+00  5.522E+01  5.585E-01  8.537E-01
   1   13    6     8     1    1.6705E+02  8.5977E-01   1.6619E+02  0.000E+00  0.000E+00  0.000E+00  1.02481E+03  2.930E+00  4.249E+01  4.329E-01  6.620E-01
   1   13    5     8     2    1.6619E+02  1.1622E-01   1.6607E+02  0.000E+00  0.000E+00  0.000E+00  1.01855E+03  2.927E+00  4.244E+01  4.325E-01  8.958E-02
   1   13    4     8     3    1.6607E+02 -2.6451E+00   1.6872E+02  0.000E+00  0.000E+00  0.000E+00  1.01231E+03  2.935E+00  4.256E+01  4.337E+00 -2.033E-01
   1   13    3     8     4    1.6872E+02 -3.7445E+00   1.7246E+02  0.000E+00  0.000E+00  0.000E+00  1.00608E+03  2.956E+00  4.286E+01  4.368E+00 -2.858E-01
   1   13    2     8     5    1.7246E+02 -2.5994E+00   1.7506E+02  0.000E+00  0.000E+00  0.000E+00  9.99852E+02  2.977E+00  4.316E+01  4.398E+00 -1.970E-01
   1   13    1     8     6    1.7506E+02 -1.9899E+00   1.7705E+02  0.000E+00  0.000E+00  0.000E+00  9.94866E+02  2.991E+00  4.337E+01  2.652E+00 -2.501E-01
   1    8    6     9     1    0.0000E+00  0.0000E+00   0.0000E+00  0.000E+00  0.000E+00  0.000E+00  1.07875E+03  0.000E+00  4.000E+00  0.000E+00  1.000E+00
   1    8    5     9     2    0.0000E+00  0.0000E+00   0.0000E+00  0.000E+00  0.000E+00  0.000E+00  1.07825E+03  0.000E+00  4.000E+00  0.000E+00  1.000E+00





UNSATURATED ZONE PACKAGE VOLUMETRIC BUDGET FOR  TIME STEP    30 STRESS PERIOD   13
  ------------------------------------------------------------------------------



     CUMULATIVE VOLUMES      L**3       RATES FOR THIS TIME STEP      L**3/T
     ------------------                 ------------------------

           IN:                                      IN:
           ---                                      ---
        INFILTRATION =   538877182.8127          INFILTRATION =           4.4075

          OUT:                                     OUT:
          ----                                     ----
              UZF ET =   497565127.3882                UZF ET =           0.7250
        UZF RECHARGE =       73224.0000          UZF RECHARGE =       0.0000E+00

            IN - OUT =    41238831.4246              IN - OUT =           3.6825

          STORAGE:                                 STORAGE:
          --------                                 --------
      STORAGE CHANGE =    41238823.8595        STORAGE CHANGE =           3.6825

 PERCENT DISCREPANCY IS DIFFERENCE BETWEEN IN-OUT MINUS CHANGE IN STORAGE
 DIVIDED BY THE AVERAGE OF IN AND OUT TIMES 100

 PERCENT DISCREPANCY =           0.00     PERCENT DISCREPANCY =           0.00






1
  VOLUMETRIC BUDGET FOR AGRICULTURAL FIELDS AT TIME STEP   30, STRESS PERIOD  13
  ------------------------------------------------------------------------------

     CUMULATIVE VOLUMES      L**3       RATES FOR THIS TIME STEP      L**3/T
     ------------------                 ------------------------

           IN:                                      IN:
           ---                                      ---
               AG WELLS  =    44249552.0000                 AG WELLS  =           0.0000
      DIVERSION SEGMENTS =   355446592.0000        DIVERSION SEGMENTS =           0.0000
           GW IRRIGATION =           0.0000             GW IRRIGATION =           0.0000
           SW IRRIGATION =           0.0000             SW IRRIGATION =           0.0000
        SYSTEM LOSSES GW =           0.0000          SYSTEM LOSSES GW =           0.0000
        SYSTEM LOSSES SW =           0.0000          SYSTEM LOSSES SW =           0.0000

                TOTAL IN =   399696128.0000                  TOTAL IN =           0.0000

          OUT:                                     OUT:
          ----                                     ----
               AG WELLS  =           0.0000                 AG WELLS  =           0.0000
      DIVERSION SEGMENTS =           0.0000        DIVERSION SEGMENTS =           0.0000
           GW IRRIGATION =    44249552.0000             GW IRRIGATION =           0.0000
           SW IRRIGATION =   355453760.0000             SW IRRIGATION =           0.0000
        SYSTEM LOSSES GW =           0.0000          SYSTEM LOSSES GW =           0.0000
        SYSTEM LOSSES SW =           0.0000          SYSTEM LOSSES SW =           0.0000

               TOTAL OUT =   399703296.0000                 TOTAL OUT =           0.0000

                IN - OUT =       -7168.0000                  IN - OUT =           0.0000

     PERCENT DISCREPANCY =          -0.00         PERCENT DISCREPANCY =           0.00



1
  VOLUMETRIC BUDGET FOR ENTIRE MODEL AT END OF TIME STEP   30, STRESS PERIOD  13
  ------------------------------------------------------------------------------

     CUMULATIVE VOLUMES      L**3       RATES FOR THIS TIME STEP      L**3/T
     ------------------                 ------------------------

           IN:                                      IN:
           ---                                      ---
             STORAGE     =    80153232.0000               STORAGE     =           1.0550
       CONSTANT HEAD     =           0.0000         CONSTANT HEAD     =           0.0000
     HEAD DEP BOUNDS     =     9042618.0000       HEAD DEP BOUNDS     =           0.2858
      STREAM LEAKAGE     =   378731936.0000        STREAM LEAKAGE     =          11.2012
        UZF RECHARGE     =       73223.9531          UZF RECHARGE     =           0.0000
               GW ET     =           0.0000                 GW ET     =           0.0000
     SURFACE LEAKAGE     =           0.0000       SURFACE LEAKAGE     =           0.0000
           AG WELLS      =           0.0000             AG WELLS      =           0.0000

                TOTAL IN =   468000992.0000                  TOTAL IN =          12.5420

          OUT:                                     OUT:
          ----                                     ----
             STORAGE     =    69865192.0000               STORAGE     =           1.2496
       CONSTANT HEAD     =           0.0000         CONSTANT HEAD     =           0.0000
     HEAD DEP BOUNDS     =     9202187.0000       HEAD DEP BOUNDS     =           0.2894
      STREAM LEAKAGE     =   343137568.0000        STREAM LEAKAGE     =          11.0030
        UZF RECHARGE     =           0.0000          UZF RECHARGE     =           0.0000
               GW ET     =     1532013.0000                 GW ET     =           0.0000
     SURFACE LEAKAGE     =           0.0000       SURFACE LEAKAGE     =           0.0000
           AG WELLS      =    44249552.0000             AG WELLS      =           0.0000

               TOTAL OUT =   467986496.0000                 TOTAL OUT =          12.5420

                IN - OUT =       14496.0000                  IN - OUT =      -5.1498E-05

     PERCENT DISCREPANCY =           0.00         PERCENT DISCREPANCY =          -0.00






         TIME SUMMARY AT END OF TIME STEP   30 IN STRESS PERIOD   13
                    SECONDS     MINUTES      HOURS       DAYS        YEARS
                    -----------------------------------------------------------
   TIME STEP LENGTH  87667.      1461.1      24.352      1.0147     2.77799E-03
 STRESS PERIOD TIME 2.63000E+06  43833.      730.56      30.440     8.33397E-02
         TOTAL TIME 3.16463E+07 5.27439E+05  8790.6      366.28      1.0028    
1
1
                            STRESS PERIOD NO.   14, LENGTH =   2630000.    
                            -----------------------------------------------

                              NUMBER OF TIME STEPS =    30

                               MULTIPLIER FOR DELT =     1.000

                            INITIAL TIME STEP SIZE =   87666.66    

 REUSING NON-PARAMETER GHB CELLS FROM LAST STRESS PERIOD

      2 GHB CELLS

 REUSING STREAM SEGMENT DATA FROM LAST STRESS PERIOD



            AREAL INFILTRATION RATE
 READING ON UNIT   19 WITH FORMAT: (10F4.0)            

            1           2           3           4           5           6           7           8           9          10
 ........................................................................................................................
   1   1.2000E-09   0.000       0.000       0.000       0.000       0.000       0.000       0.000       0.000       0.000    
   2   2.1000E-09  2.0000E-09  8.0000E-10  8.5000E-09   0.000       0.000       0.000       0.000       0.000       0.000    
   3   5.0000E-10  1.1000E-09  8.8000E-09  5.5000E-09   0.000       0.000       0.000       0.000       0.000       0.000    
   4   8.5000E-09  1.1000E-09  1.1000E-09  1.1000E-09  2.0000E-09   0.000       0.000       0.000       0.000       0.000    
   5   8.5000E-09  1.1000E-09  1.1000E-09  1.1000E-09  1.1000E-09   0.000       0.000       0.000       0.000       0.000    
   6   8.5000E-09  5.2000E-09  2.1000E-09  1.1000E-09  1.5000E-09   0.000       0.000       0.000       0.000       0.000    
   7   8.5000E-09  5.2000E-09  2.1000E-09  1.2000E-09  2.0000E-09   0.000       0.000       0.000       0.000       0.000    
   8   5.0000E-10  5.2000E-09  2.1000E-09  1.2000E-09  5.0000E-09   0.000       0.000       0.000       0.000       0.000    
   9   5.0000E-10  5.2000E-09  2.1000E-09  1.2000E-09  5.0000E-09   0.000       0.000       0.000       0.000       0.000    
  10   5.0000E-10  5.2000E-09  2.1000E-09  1.2000E-09  5.8000E-09   0.000       0.000       0.000       0.000       0.000    
  11   1.0000E-10  1.1000E-09  1.1000E-09  1.2000E-09  5.0000E-09   0.000       0.000       0.000       0.000       0.000    
  12   1.1000E-09  1.1000E-09  1.1000E-09  1.1000E-09  2.0000E-09   0.000       0.000       0.000       0.000       0.000    
  13   1.1000E-09  2.2000E-09  2.2000E-09  2.1000E-09  1.0000E-09   0.000       0.000       0.000       0.000       0.000    
  14   2.0000E-10  5.5000E-09  5.5000E-09  5.2000E-09  1.0000E-09   0.000       0.000       0.000       0.000       0.000    
  15    0.000      8.8000E-09  8.8000E-09   0.000       0.000       0.000       0.000       0.000       0.000       0.000    

                  ET RATE =  5.000000E-10

 USING ET EXTINCTION DEPTH FROM PREVIOUS STRESS PERIOD. CURRENT PERIOD IS:      14

 USING EXTINCTION WATER CONTENT FROM PREVIOUS STRESS PERIOD. CURRENT PERIOD IS:      14

 USING AIR ENTRY PRESSURE FROM PREVIOUS STRESS PERIOD. CURRENT PERIOD IS:      14

 USING ROOT PRESSURE HEAD FROM PREVIOUS STRESS PERIOD. CURRENT PERIOD IS:      14

 USING ROOT ACTIVITY FROM PREVIOUS STRESS PERIOD. CURRENT PERIOD IS:      14

 PROCESSING AG STRESS PERIOD DATA

 READING AG STRESS PERIOD DATA

 READING IRRIGATION SEGMENT

 READING IRRIGATION WELL

 READING SUPPLEMENTAL WELL

 END PROCESSING AG STRESS PERIOD DATA OPTIONS
 
 SOLVING FOR HEAD 
                                                   Max.-Head-Change                         Max.-Flux-Residual
  Residual-Control   Outer-Iter.   Inner-Iter.     Column Row Layer    Maximum-Head-Change  Column Row Layer    Maximum-Flux-Residual          L2-NORM 
          0                 1           2             4    7     1       0.2616426502E-02       4    7    1         0.1375242607E+00      0.3476503841E+00
          0                 2           2             4    7     1      -0.2545071195E-03       4    7    1        -0.1375243755E-01      0.3473687049E-01
          0                 3           1             4    7     1       0.1733098964E-04       4    7    1         0.9626709323E-03      0.2429110072E-02

    ------------------------------------------------
       NWT REQUIRED            3 OUTER ITERATIONS 
       AND A TOTAL OF          5 INNER ITERATIONS.
    ------------------------------------------------

 NO OUTPUT CONTROL FOR STRESS PERIOD   14   TIME STEP    1
 
 SOLVING FOR HEAD 
                                                   Max.-Head-Change                         Max.-Flux-Residual
  Residual-Control   Outer-Iter.   Inner-Iter.     Column Row Layer    Maximum-Head-Change  Column Row Layer    Maximum-Flux-Residual          L2-NORM 
          0                 1           2             4    7     1       0.2586712486E-02       4    7    1         0.1359556300E+00      0.3663562433E+00
          0                 2           2             4    7     1      -0.2516167513E-03       4    7    1        -0.1359557417E-01      0.3652261563E-01
          0                 3           1             4    7     1       0.1713416599E-04       4    7    1         0.9516904875E-03      0.2545253747E-02

    ------------------------------------------------
       NWT REQUIRED            3 OUTER ITERATIONS 
       AND A TOTAL OF          5 INNER ITERATIONS.
    ------------------------------------------------

 NO OUTPUT CONTROL FOR STRESS PERIOD   14   TIME STEP    2
 
 SOLVING FOR HEAD 
                                                   Max.-Head-Change                         Max.-Flux-Residual
  Residual-Control   Outer-Iter.   Inner-Iter.     Column Row Layer    Maximum-Head-Change  Column Row Layer    Maximum-Flux-Residual          L2-NORM 
          0                 1           2             4    7     1       0.2557251953E-02       4    7    1         0.1344001741E+00      0.3606685621E+00
          0                 2           2             4    7     1      -0.2487510408E-03       4    7    1        -0.1344002831E-01      0.3596866255E-01
          0                 3           1             4    7     1       0.1693902178E-04       4    7    1         0.9408022718E-03      0.2509008509E-02

    ------------------------------------------------
       NWT REQUIRED            3 OUTER ITERATIONS 
       AND A TOTAL OF          5 INNER ITERATIONS.
    ------------------------------------------------

 NO OUTPUT CONTROL FOR STRESS PERIOD   14   TIME STEP    3
 
 SOLVING FOR HEAD 
                                                   Max.-Head-Change                         Max.-Flux-Residual
  Residual-Control   Outer-Iter.   Inner-Iter.     Column Row Layer    Maximum-Head-Change  Column Row Layer    Maximum-Flux-Residual          L2-NORM 
          0                 1           2             4    7     1       0.2528322250E-02       4    7    1         0.1328726759E+00      0.3553747031E+00
          0                 2           2             4    7     1      -0.2459369656E-03       4    7    1        -0.1328727819E-01      0.3545096461E-01
          0                 3           1             4    7     1       0.1674739430E-04       4    7    1         0.9301097996E-03      0.2473425612E-02

    ------------------------------------------------
       NWT REQUIRED            3 OUTER ITERATIONS 
       AND A TOTAL OF          5 INNER ITERATIONS.
    ------------------------------------------------

 NO OUTPUT CONTROL FOR STRESS PERIOD   14   TIME STEP    4
 
 SOLVING FOR HEAD 
                                                   Max.-Head-Change                         Max.-Flux-Residual
  Residual-Control   Outer-Iter.   Inner-Iter.     Column Row Layer    Maximum-Head-Change  Column Row Layer    Maximum-Flux-Residual          L2-NORM 
          0                 1           2             4    7     1       0.2499911600E-02       4    7    1         0.1313727008E+00      0.3504275508E+00
          0                 2           2             4    7     1      -0.2431733799E-03       4    7    1        -0.1313728040E-01      0.3496660511E-01
          0                 3           1             4    7     1       0.1655920449E-04       4    7    1         0.9196099340E-03      0.2440625775E-02

    ------------------------------------------------
       NWT REQUIRED            3 OUTER ITERATIONS 
       AND A TOTAL OF          5 INNER ITERATIONS.
    ------------------------------------------------

 NO OUTPUT CONTROL FOR STRESS PERIOD   14   TIME STEP    5
 
 SOLVING FOR HEAD 
                                                   Max.-Head-Change                         Max.-Flux-Residual
  Residual-Control   Outer-Iter.   Inner-Iter.     Column Row Layer    Maximum-Head-Change  Column Row Layer    Maximum-Flux-Residual          L2-NORM 
          0                 1           2             4    7     1       0.2472006778E-02       4    7    1         0.1298996379E+00      0.3457889524E+00
          0                 2           2             4    7     1      -0.2404600396E-03       4    7    1        -0.1298997383E-01      0.3451352580E-01
          0                 3           1             4    7     1       0.1637443556E-04       4    7    1         0.9092984524E-03      0.2409598307E-02

    ------------------------------------------------
       NWT REQUIRED            3 OUTER ITERATIONS 
       AND A TOTAL OF          5 INNER ITERATIONS.
    ------------------------------------------------

 NO OUTPUT CONTROL FOR STRESS PERIOD   14   TIME STEP    6
 
 SOLVING FOR HEAD 
                                                   Max.-Head-Change                         Max.-Flux-Residual
  Residual-Control   Outer-Iter.   Inner-Iter.     Column Row Layer    Maximum-Head-Change  Column Row Layer    Maximum-Flux-Residual          L2-NORM 
          0                 1           2             4    7     1       0.2444309499E-02       4    7    1         0.1284379311E+00      0.3414021313E+00
          0                 2           2             4    7     1      -0.2377648039E-03       4    7    1        -0.1284380291E-01      0.3408077916E-01
          0                 3           1             4    7     1       0.1619090017E-04       4    7    1         0.8990664946E-03      0.2380079392E-02

    ------------------------------------------------
       NWT REQUIRED            3 OUTER ITERATIONS 
       AND A TOTAL OF          5 INNER ITERATIONS.
    ------------------------------------------------

 NO OUTPUT CONTROL FOR STRESS PERIOD   14   TIME STEP    7
 
 SOLVING FOR HEAD 
                                                   Max.-Head-Change                         Max.-Flux-Residual
  Residual-Control   Outer-Iter.   Inner-Iter.     Column Row Layer    Maximum-Head-Change  Column Row Layer    Maximum-Flux-Residual          L2-NORM 
          0                 1           2             4    7     1       0.2417102177E-02       4    7    1         0.1270019110E+00      0.3372428628E+00
          0                 2           2             4    7     1      -0.2351182698E-03       4    7    1        -0.1270020065E-01      0.3367094947E-01
          0                 3           1             4    7     1       0.1601068105E-04       4    7    1         0.8890143372E-03      0.2352547932E-02

    ------------------------------------------------
       NWT REQUIRED            3 OUTER ITERATIONS 
       AND A TOTAL OF          5 INNER ITERATIONS.
    ------------------------------------------------

 NO OUTPUT CONTROL FOR STRESS PERIOD   14   TIME STEP    8
 
 SOLVING FOR HEAD 
                                                   Max.-Head-Change                         Max.-Flux-Residual
  Residual-Control   Outer-Iter.   Inner-Iter.     Column Row Layer    Maximum-Head-Change  Column Row Layer    Maximum-Flux-Residual          L2-NORM 
          0                 1           2             4    7     1       0.2390368791E-02       4    7    1         0.1255912393E+00      0.3332998334E+00
          0                 2           2             4    7     1      -0.2325178367E-03       4    7    1        -0.1255913322E-01      0.3328375025E-01
          0                 3           1             4    7     1       0.1583360116E-04       4    7    1         0.8791396128E-03      0.2325694232E-02

    ------------------------------------------------
       NWT REQUIRED            3 OUTER ITERATIONS 
       AND A TOTAL OF          5 INNER ITERATIONS.
    ------------------------------------------------

 NO OUTPUT CONTROL FOR STRESS PERIOD   14   TIME STEP    9
 
 SOLVING FOR HEAD 
                                                   Max.-Head-Change                         Max.-Flux-Residual
  Residual-Control   Outer-Iter.   Inner-Iter.     Column Row Layer    Maximum-Head-Change  Column Row Layer    Maximum-Flux-Residual          L2-NORM 
          0                 1           2             4    7     1       0.2364108890E-02       4    7    1         0.1242051406E+00      0.3295444837E+00
          0                 2           2             4    7     1      -0.2299634608E-03       4    7    1        -0.1242052312E-01      0.3291337401E-01
          0                 3           1             4    7     1       0.1565965767E-04       4    7    1         0.8694369012E-03      0.2300270119E-02

    ------------------------------------------------
       NWT REQUIRED            3 OUTER ITERATIONS 
       AND A TOTAL OF          5 INNER ITERATIONS.
    ------------------------------------------------

 NO OUTPUT CONTROL FOR STRESS PERIOD   14   TIME STEP   10
 
 SOLVING FOR HEAD 
                                                   Max.-Head-Change                         Max.-Flux-Residual
  Residual-Control   Outer-Iter.   Inner-Iter.     Column Row Layer    Maximum-Head-Change  Column Row Layer    Maximum-Flux-Residual          L2-NORM 
          0                 1           2             4    7     1       0.2338302296E-02       4    7    1         0.1228435917E+00      0.3259470613E+00
          0                 2           2             4    7     1      -0.2274531794E-03       4    7    1        -0.1228436800E-01      0.3255861841E-01
          0                 3           1             4    7     1       0.1548871684E-04       4    7    1         0.8599060311E-03      0.2276023147E-02

    ------------------------------------------------
       NWT REQUIRED            3 OUTER ITERATIONS 
       AND A TOTAL OF          5 INNER ITERATIONS.
    ------------------------------------------------

 NO OUTPUT CONTROL FOR STRESS PERIOD   14   TIME STEP   11
 
 SOLVING FOR HEAD 
                                                   Max.-Head-Change                         Max.-Flux-Residual
  Residual-Control   Outer-Iter.   Inner-Iter.     Column Row Layer    Maximum-Head-Change  Column Row Layer    Maximum-Flux-Residual          L2-NORM 
          0                 1           2             4    7     1       0.2312672407E-02       4    7    1         0.1214907306E+00      0.3224937297E+00
          0                 2           2             4    7     1      -0.2249600872E-03       4    7    1        -0.1214908168E-01      0.3221731129E-01
          0                 3           1             4    7     1       0.1531894708E-04       4    7    1         0.8504360114E-03      0.2251983214E-02

    ------------------------------------------------
       NWT REQUIRED            3 OUTER ITERATIONS 
       AND A TOTAL OF          5 INNER ITERATIONS.
    ------------------------------------------------

 NO OUTPUT CONTROL FOR STRESS PERIOD   14   TIME STEP   12
 
 SOLVING FOR HEAD 
                                                   Max.-Head-Change                         Max.-Flux-Residual
  Residual-Control   Outer-Iter.   Inner-Iter.     Column Row Layer    Maximum-Head-Change  Column Row Layer    Maximum-Flux-Residual          L2-NORM 
          0                 1           2             4    7     1       0.2287484715E-02       4    7    1         0.1201618471E+00      0.3191599449E+00
          0                 2           2             4    7     1      -0.2225100084E-03       4    7    1        -0.1201619312E-01      0.3188736267E-01
          0                 3           1             4    7     1       0.1515210521E-04       4    7    1         0.8411337926E-03      0.2229598818E-02

    ------------------------------------------------
       NWT REQUIRED            3 OUTER ITERATIONS 
       AND A TOTAL OF          5 INNER ITERATIONS.
    ------------------------------------------------

 NO OUTPUT CONTROL FOR STRESS PERIOD   14   TIME STEP   13
 
 SOLVING FOR HEAD 
                                                   Max.-Head-Change                         Max.-Flux-Residual
  Residual-Control   Outer-Iter.   Inner-Iter.     Column Row Layer    Maximum-Head-Change  Column Row Layer    Maximum-Flux-Residual          L2-NORM 
          0                 1           2             4    7     1       0.2262738311E-02       4    7    1         0.1188558910E+00      0.3159597480E+00
          0                 2           2             4    7     1      -0.2201028552E-03       4    7    1        -0.1188559729E-01      0.3157036150E-01
          0                 3           1             4    7     1       0.1498818719E-04       4    7    1         0.8319920930E-03      0.2207511748E-02

    ------------------------------------------------
       NWT REQUIRED            3 OUTER ITERATIONS 
       AND A TOTAL OF          5 INNER ITERATIONS.
    ------------------------------------------------

 NO OUTPUT CONTROL FOR STRESS PERIOD   14   TIME STEP   14
 
 SOLVING FOR HEAD 
                                                   Max.-Head-Change                         Max.-Flux-Residual
  Residual-Control   Outer-Iter.   Inner-Iter.     Column Row Layer    Maximum-Head-Change  Column Row Layer    Maximum-Flux-Residual          L2-NORM 
          0                 1           2             4    7     1       0.2238419810E-02       4    7    1         0.1175728152E+00      0.3128615993E+00
          0                 2           2             4    7     1      -0.2177373252E-03       4    7    1        -0.1175728952E-01      0.3126314528E-01
          0                 3           1             4    7     1       0.1482710358E-04       4    7    1         0.8230105541E-03      0.2186339905E-02

    ------------------------------------------------
       NWT REQUIRED            3 OUTER ITERATIONS 
       AND A TOTAL OF          5 INNER ITERATIONS.
    ------------------------------------------------

 NO OUTPUT CONTROL FOR STRESS PERIOD   14   TIME STEP   15
 
 SOLVING FOR HEAD 
                                                   Max.-Head-Change                         Max.-Flux-Residual
  Residual-Control   Outer-Iter.   Inner-Iter.     Column Row Layer    Maximum-Head-Change  Column Row Layer    Maximum-Flux-Residual          L2-NORM 
          0                 1           2             4    7     1       0.2214523690E-02       4    7    1         0.1163119257E+00      0.3098683721E+00
          0                 2           2             4    7     1      -0.2154128811E-03       4    7    1        -0.1163120036E-01      0.3096644773E-01
          0                 3           1             4    7     1       0.1466881744E-04       4    7    1         0.8141842904E-03      0.2165891314E-02

    ------------------------------------------------
       NWT REQUIRED            3 OUTER ITERATIONS 
       AND A TOTAL OF          5 INNER ITERATIONS.
    ------------------------------------------------

 NO OUTPUT CONTROL FOR STRESS PERIOD   14   TIME STEP   16
 
 SOLVING FOR HEAD 
                                                   Max.-Head-Change                         Max.-Flux-Residual
  Residual-Control   Outer-Iter.   Inner-Iter.     Column Row Layer    Maximum-Head-Change  Column Row Layer    Maximum-Flux-Residual          L2-NORM 
          0                 1           2             4    7     1       0.2190763971E-02       4    7    1         0.1150581204E+00      0.3069554278E+00
          0                 2           2             4    7     1      -0.2131017054E-03       4    7    1        -0.1150581963E-01      0.3067740625E-01
          0                 3           1             4    7     1       0.1451143492E-04       4    7    1         0.8054076370E-03      0.2145708325E-02

    ------------------------------------------------
       NWT REQUIRED            3 OUTER ITERATIONS 
       AND A TOTAL OF          5 INNER ITERATIONS.
    ------------------------------------------------

 NO OUTPUT CONTROL FOR STRESS PERIOD   14   TIME STEP   17
 
 SOLVING FOR HEAD 
                                                   Max.-Head-Change                         Max.-Flux-Residual
  Residual-Control   Outer-Iter.   Inner-Iter.     Column Row Layer    Maximum-Head-Change  Column Row Layer    Maximum-Flux-Residual          L2-NORM 
          0                 1           2             4    7     1       0.2167689982E-02       4    7    1         0.1138410191E+00      0.3041317195E+00
          0                 2           2             4    7     1      -0.2108572331E-03       4    7    1        -0.1138410933E-01      0.3039681096E-01
          0                 3           1             4    7     1       0.1435859464E-04       4    7    1         0.7968879265E-03      0.2126307597E-02

    ------------------------------------------------
       NWT REQUIRED            3 OUTER ITERATIONS 
       AND A TOTAL OF          5 INNER ITERATIONS.
    ------------------------------------------------

 NO OUTPUT CONTROL FOR STRESS PERIOD   14   TIME STEP   18
 
 SOLVING FOR HEAD 
                                                   Max.-Head-Change                         Max.-Flux-Residual
  Residual-Control   Outer-Iter.   Inner-Iter.     Column Row Layer    Maximum-Head-Change  Column Row Layer    Maximum-Flux-Residual          L2-NORM 
          0                 1           2             4    7     1       0.2144731081E-02       4    7    1         0.1126298402E+00      0.3013725521E+00
          0                 2           2             4    7     1      -0.2086239550E-03       4    7    1        -0.1126299123E-01      0.3012284558E-01
          0                 3           1             4    7     1       0.1420651667E-04       4    7    1         0.7884096490E-03      0.2108097339E-02

    ------------------------------------------------
       NWT REQUIRED            3 OUTER ITERATIONS 
       AND A TOTAL OF          5 INNER ITERATIONS.
    ------------------------------------------------

 NO OUTPUT CONTROL FOR STRESS PERIOD   14   TIME STEP   19
 
 SOLVING FOR HEAD 
                                                   Max.-Head-Change                         Max.-Flux-Residual
  Residual-Control   Outer-Iter.   Inner-Iter.     Column Row Layer    Maximum-Head-Change  Column Row Layer    Maximum-Flux-Residual          L2-NORM 
          0                 1           2             4    7     1       0.2122174958E-02       4    7    1         0.1114394445E+00      0.2986982708E+00
          0                 2           2             4    7     1      -0.2064298567E-03       4    7    1        -0.1114395149E-01      0.2985664743E-01
          0                 3           1             4    7     1       0.1405710673E-04       4    7    1         0.7800768626E-03      0.2088724877E-02

    ------------------------------------------------
       NWT REQUIRED            3 OUTER ITERATIONS 
       AND A TOTAL OF          5 INNER ITERATIONS.
    ------------------------------------------------

 NO OUTPUT CONTROL FOR STRESS PERIOD   14   TIME STEP   20
 
 SOLVING FOR HEAD 
                                                   Max.-Head-Change                         Max.-Flux-Residual
  Residual-Control   Outer-Iter.   Inner-Iter.     Column Row Layer    Maximum-Head-Change  Column Row Layer    Maximum-Flux-Residual          L2-NORM 
          0                 1           2             4    7     1       0.2100001165E-02       4    7    1         0.1102699326E+00      0.2960740123E+00
          0                 2           2             4    7     1      -0.2042729493E-03       4    7    1        -0.1102700013E-01      0.2959548397E-01
          0                 3           1             4    7     1       0.1391023014E-04       4    7    1         0.7718902932E-03      0.2070808972E-02

    ------------------------------------------------
       NWT REQUIRED            3 OUTER ITERATIONS 
       AND A TOTAL OF          5 INNER ITERATIONS.
    ------------------------------------------------

 NO OUTPUT CONTROL FOR STRESS PERIOD   14   TIME STEP   21
 
 SOLVING FOR HEAD 
                                                   Max.-Head-Change                         Max.-Flux-Residual
  Residual-Control   Outer-Iter.   Inner-Iter.     Column Row Layer    Maximum-Head-Change  Column Row Layer    Maximum-Flux-Residual          L2-NORM 
          0                 1           2             4    7     1       0.2077933713E-02       4    7    1         0.1091054276E+00      0.2935112249E+00
          0                 2           2             4    7     1      -0.2021263852E-03       4    7    1        -0.1091054947E-01      0.2934014375E-01
          0                 3           1             4    7     1       0.1376405623E-04       4    7    1         0.7637387189E-03      0.2052773913E-02

    ------------------------------------------------
       NWT REQUIRED            3 OUTER ITERATIONS 
       AND A TOTAL OF          5 INNER ITERATIONS.
    ------------------------------------------------

 NO OUTPUT CONTROL FOR STRESS PERIOD   14   TIME STEP   22
 
 SOLVING FOR HEAD 
                                                   Max.-Head-Change                         Max.-Flux-Residual
  Residual-Control   Outer-Iter.   Inner-Iter.     Column Row Layer    Maximum-Head-Change  Column Row Layer    Maximum-Flux-Residual          L2-NORM 
          0                 1           2             4    7     1       0.2056519062E-02       4    7    1         0.1079760689E+00      0.2910073384E+00
          0                 2           2             4    7     1      -0.2000433213E-03       4    7    1        -0.1079761344E-01      0.2909097143E-01
          0                 3           1             4    7     1       0.1362220800E-04       4    7    1         0.7558332040E-03      0.2035619245E-02

    ------------------------------------------------
       NWT REQUIRED            3 OUTER ITERATIONS 
       AND A TOTAL OF          5 INNER ITERATIONS.
    ------------------------------------------------

 NO OUTPUT CONTROL FOR STRESS PERIOD   14   TIME STEP   23
 
 SOLVING FOR HEAD 
                                                   Max.-Head-Change                         Max.-Flux-Residual
  Residual-Control   Outer-Iter.   Inner-Iter.     Column Row Layer    Maximum-Head-Change  Column Row Layer    Maximum-Flux-Residual          L2-NORM 
          0                 1           2             4    7     1       0.2035190864E-02       4    7    1         0.1068509245E+00      0.2885588316E+00
          0                 2           2             4    7     1      -0.1979686670E-03       4    7    1        -0.1068509884E-01      0.2884692691E-01
          0                 3           1             4    7     1       0.1348093157E-04       4    7    1         0.7479571843E-03      0.2018313188E-02

    ------------------------------------------------
       NWT REQUIRED            3 OUTER ITERATIONS 
       AND A TOTAL OF          5 INNER ITERATIONS.
    ------------------------------------------------

 NO OUTPUT CONTROL FOR STRESS PERIOD   14   TIME STEP   24
 
 SOLVING FOR HEAD 
                                                   Max.-Head-Change                         Max.-Flux-Residual
  Residual-Control   Outer-Iter.   Inner-Iter.     Column Row Layer    Maximum-Head-Change  Column Row Layer    Maximum-Flux-Residual          L2-NORM 
          0                 1           2             4    7     1       0.2014227597E-02       4    7    1         0.1057450791E+00      0.2861570444E+00
          0                 2           2             4    7     1      -0.1959295101E-03       4    7    1        -0.1057451413E-01      0.2860768543E-01
          0                 3           1             4    7     1       0.1334207228E-04       4    7    1         0.7402162441E-03      0.2001793258E-02

    ------------------------------------------------
       NWT REQUIRED            3 OUTER ITERATIONS 
       AND A TOTAL OF          5 INNER ITERATIONS.
    ------------------------------------------------

 NO OUTPUT CONTROL FOR STRESS PERIOD   14   TIME STEP   25
 
 SOLVING FOR HEAD 
                                                   Max.-Head-Change                         Max.-Flux-Residual
  Residual-Control   Outer-Iter.   Inner-Iter.     Column Row Layer    Maximum-Head-Change  Column Row Layer    Maximum-Flux-Residual          L2-NORM 
          0                 1           2             4    7     1       0.1993620430E-02       4    7    1         0.1046581549E+00      0.2838078366E+00
          0                 2           2             4    7     1      -0.1939249930E-03       4    7    1        -0.1046582157E-01      0.2837340609E-01
          0                 3           1             4    7     1       0.1320557239E-04       4    7    1         0.7326077848E-03      0.1985431675E-02

    ------------------------------------------------
       NWT REQUIRED            3 OUTER ITERATIONS 
       AND A TOTAL OF          5 INNER ITERATIONS.
    ------------------------------------------------

 NO OUTPUT CONTROL FOR STRESS PERIOD   14   TIME STEP   26
 
 SOLVING FOR HEAD 
                                                   Max.-Head-Change                         Max.-Flux-Residual
  Residual-Control   Outer-Iter.   Inner-Iter.     Column Row Layer    Maximum-Head-Change  Column Row Layer    Maximum-Flux-Residual          L2-NORM 
          0                 1           2             4    7     1       0.1973360533E-02       4    7    1         0.1035896941E+00      0.2814998206E+00
          0                 2           2             4    7     1      -0.1919542551E-03       4    7    1        -0.1035897535E-01      0.2814302952E-01
          0                 3           1             4    7     1       0.1307137202E-04       4    7    1         0.7251285240E-03      0.1969457664E-02

    ------------------------------------------------
       NWT REQUIRED            3 OUTER ITERATIONS 
       AND A TOTAL OF          5 INNER ITERATIONS.
    ------------------------------------------------

 NO OUTPUT CONTROL FOR STRESS PERIOD   14   TIME STEP   27
 
 SOLVING FOR HEAD 
                                                   Max.-Head-Change                         Max.-Flux-Residual
  Residual-Control   Outer-Iter.   Inner-Iter.     Column Row Layer    Maximum-Head-Change  Column Row Layer    Maximum-Flux-Residual          L2-NORM 
          0                 1           2             4    7     1       0.1953439402E-02       4    7    1         0.1025392389E+00      0.2792370321E+00
          0                 2           2             4    7     1      -0.1900164705E-03       4    7    1        -0.1025392970E-01      0.2791769787E-01
          0                 3           1             4    7     1       0.1293941650E-04       4    7    1         0.7177753382E-03      0.1953767945E-02

    ------------------------------------------------
       NWT REQUIRED            3 OUTER ITERATIONS 
       AND A TOTAL OF          5 INNER ITERATIONS.
    ------------------------------------------------

 NO OUTPUT CONTROL FOR STRESS PERIOD   14   TIME STEP   28
 
 SOLVING FOR HEAD 
                                                   Max.-Head-Change                         Max.-Flux-Residual
  Residual-Control   Outer-Iter.   Inner-Iter.     Column Row Layer    Maximum-Head-Change  Column Row Layer    Maximum-Flux-Residual          L2-NORM 
          0                 1           2             4    7     1       0.1933574555E-02       4    7    1         0.1014915316E+00      0.2770100022E+00
          0                 2           2             4    7     1      -0.1880841601E-03       4    7    1        -0.1014915882E-01      0.2769549498E-01
          0                 3           1             4    7     1       0.1280783278E-04       4    7    1         0.7104413567E-03      0.1938194845E-02

    ------------------------------------------------
       NWT REQUIRED            3 OUTER ITERATIONS 
       AND A TOTAL OF          5 INNER ITERATIONS.
    ------------------------------------------------

 NO OUTPUT CONTROL FOR STRESS PERIOD   14   TIME STEP   29
 
 SOLVING FOR HEAD 
                                                   Max.-Head-Change                         Max.-Flux-Residual
  Residual-Control   Outer-Iter.   Inner-Iter.     Column Row Layer    Maximum-Head-Change  Column Row Layer    Maximum-Flux-Residual          L2-NORM 
          0                 1           2             4    7     1       0.1914318918E-02       4    7    1         0.1004763760E+00      0.2748304534E+00
          0                 2           2             4    7     1      -0.1862111099E-03       4    7    1        -0.1004764313E-01      0.2747787675E-01
          0                 3           1             4    7     1       0.1268028530E-04       4    7    1         0.7033352624E-03      0.1922991821E-02

    ------------------------------------------------
       NWT REQUIRED            3 OUTER ITERATIONS 
       AND A TOTAL OF          5 INNER ITERATIONS.
    ------------------------------------------------

 NO OUTPUT CONTROL FOR STRESS PERIOD   14   TIME STEP   30



 STREAM LISTING     PERIOD     14   STEP       30

 LAYER ROW COL. STREAM  RCH.  FLOW INTO     FLOW TO   FLOW OUT OF   OVRLND.     DIRECT     STREAM       STREAM     STREAM     STREAM   STREAMBED  STREAMBED
                SEG.NO.  NO.  STRM. RCH.    AQUIFER    STRM. RCH.    RUNOFF     PRECIP       ET          HEAD       DEPTH      WIDTH   CONDCTNC.   GRADIENT

   1    1    1     1     1    1.4250E+01  1.8169E-01   1.4069E+01  0.000E+00  0.000E+00  0.000E+00  1.09404E+03  9.953E-01  1.011E+01  4.548E-02  1.332E+00
   1    2    2     1     2    1.4069E+01  2.7999E-01   1.3789E+01  0.000E+00  0.000E+00  0.000E+00  1.08905E+03  9.906E-01  1.002E+01  7.016E-02  1.330E+00
   1    3    3     1     3    1.3789E+01  2.3745E-01   1.3551E+01  0.000E+00  0.000E+00  0.000E+00  1.08340E+03  9.853E-01  9.930E+00  5.958E-02  1.328E+00
   1    3    4     1     4    1.3551E+01  2.1755E-01   1.3334E+01  0.000E+00  0.000E+00  0.000E+00  1.07839E+03  9.805E-01  9.848E+00  5.465E-02  1.327E+00
   1    4    5     2     1    1.1334E+01  2.9214E-01   1.1041E+01  0.000E+00  0.000E+00  0.000E+00  1.07268E+03  7.454E-01  1.200E+01  7.800E-02  1.248E+00
   1    5    6     2     2    1.1041E+01  2.2410E-01   1.0817E+01  0.000E+00  0.000E+00  0.000E+00  1.06724E+03  7.350E-01  1.200E+01  6.000E-02  1.245E+00
   1    6    6     2     3    1.0817E+01  2.2356E-01   1.0594E+01  0.000E+00  0.000E+00  0.000E+00  1.06252E+03  7.260E-01  1.200E+01  6.000E-02  1.242E+00
   1    7    6     2     4    1.0594E+01  2.2301E-01   1.0371E+01  0.000E+00  0.000E+00  0.000E+00  1.05779E+03  7.168E-01  1.200E+01  6.000E-02  1.239E+00
   1    8    6     2     5    1.0371E+01  2.2246E-01   1.0148E+01  0.000E+00  0.000E+00  0.000E+00  1.05307E+03  7.077E-01  1.200E+01  6.000E-02  1.236E+00
   1    3    5     3     1    2.0000E+00  2.8252E-01   1.7175E+00  0.000E+00  0.000E+00  0.000E+00  1.07555E+03  1.909E+00  9.636E+00  7.227E-02  1.955E+00
   1    3    6     3     2    1.7175E+00  2.4905E-01   1.4684E+00  0.000E+00  0.000E+00  0.000E+00  1.07264E+03  1.727E+00  8.909E+00  6.682E-02  1.864E+00
   1    3    7     3     3    1.4684E+00  1.9718E-01   1.2712E+00  0.000E+00  0.000E+00  0.000E+00  1.06987E+03  1.555E+00  8.218E+00  5.547E-02  1.777E+00
   1    4    8     3     4    1.2712E+00  2.2567E-01   1.0456E+00  0.000E+00  0.000E+00  0.000E+00  1.06682E+03  1.364E+00  7.455E+00  6.709E-02  1.682E+00
   1    5    8     3     5    1.0456E+00  1.5790E-01   8.8768E-01  0.000E+00  0.000E+00  0.000E+00  1.06362E+03  1.164E+00  6.655E+00  4.991E-02  1.582E+00
   1    6    8     3     6    8.8768E-01  5.5980E-02   8.3170E-01  0.000E+00  0.000E+00  0.000E+00  1.06158E+03  1.036E+00  6.145E+00  1.844E-02  1.518E+00
   1    5   10     4     1    1.0000E+01  9.0919E-02   9.9091E+00  0.000E+00  0.000E+00  0.000E+00  1.07836E+03  6.368E-01  1.000E+01  2.500E-02  1.212E+00
   1    5    9     4     2    9.9091E+00  1.8158E-01   9.7275E+00  0.000E+00  0.000E+00  0.000E+00  1.07154E+03  6.315E-01  1.000E+01  5.000E-02  1.211E+00
   1    6    8     4     3    9.7275E+00  1.2689E-01   9.6006E+00  0.000E+00  0.000E+00  0.000E+00  1.06381E+03  6.256E-01  1.000E+01  3.500E-02  1.209E+00
   1    6    8     5     1    1.0432E+01  2.2686E-01   1.0205E+01  0.000E+00  0.000E+00  0.000E+00  1.05868E+03  6.790E-01  1.542E+01  6.166E-02  1.226E+00
   1    7    7     5     2    1.0205E+01  2.7894E-01   9.9265E+00  0.000E+00  0.000E+00  0.000E+00  1.05417E+03  6.732E-01  1.519E+01  7.594E-02  1.224E+00
   1    8    7     5     3    9.9265E+00  1.9221E-01   9.7343E+00  0.000E+00  0.000E+00  0.000E+00  1.04992E+03  6.676E-01  1.497E+01  5.241E-02  1.223E+00
   1    8    6     5     4    9.7343E+00  1.3577E-01   9.5985E+00  0.000E+00  0.000E+00  0.000E+00  1.04691E+03  6.637E-01  1.482E+01  3.706E-02  1.221E+00
   1    9    6     6     1    1.9747E+01  2.4336E-01   1.9503E+01  0.000E+00  0.000E+00  0.000E+00  1.04378E+03  1.056E+00  1.200E+01  6.000E-02  1.352E+00
   1   10    7     6     2    1.9503E+01  2.4289E-01   1.9261E+01  0.000E+00  0.000E+00  0.000E+00  1.03923E+03  1.048E+00  1.200E+01  6.000E-02  1.349E+00
   1   11    7     6     3    1.9261E+01  2.4241E-01   1.9018E+01  0.000E+00  0.000E+00  0.000E+00  1.03468E+03  1.040E+00  1.200E+01  6.000E-02  1.347E+00
   1   12    7     6     4    1.9018E+01  2.4194E-01   1.8776E+01  0.000E+00  0.000E+00  0.000E+00  1.03012E+03  1.032E+00  1.200E+01  6.000E-02  1.344E+00
   1   13    7     6     5    1.8776E+01 -4.3037E-02   1.8819E+01  0.000E+00  0.000E+00  0.000E+00  1.02694E+03  1.029E+00  1.200E+01  2.400E-01 -5.977E-02
   1   14    9     7     1    1.5000E+02  1.3359E+00   1.4866E+02  0.000E+00  0.000E+00  0.000E+00  1.03987E+03  2.288E+00  5.529E+01  5.593E-01  7.962E-01
   1   13    8     7     2    1.4866E+02  1.8219E+00   1.4684E+02  0.000E+00  0.000E+00  0.000E+00  1.03478E+03  2.279E+00  5.526E+01  6.148E-01  9.878E-01
   1   13    7     7     3    1.4684E+02  1.4366E+00   1.4541E+02  0.000E+00  0.000E+00  0.000E+00  1.02969E+03  2.271E+00  5.522E+01  5.585E-01  8.575E-01
   1   13    6     8     1    1.6422E+02  8.5133E-01   1.6337E+02  0.000E+00  0.000E+00  0.000E+00  1.02479E+03  2.911E+00  4.221E+01  4.302E-01  6.597E-01
   1   13    5     8     2    1.6337E+02  1.1229E-01   1.6326E+02  0.000E+00  0.000E+00  0.000E+00  1.01853E+03  2.908E+00  4.217E+01  4.297E-01  8.711E-02
   1   13    4     8     3    1.6326E+02 -2.6517E+00   1.6591E+02  0.000E+00  0.000E+00  0.000E+00  1.01229E+03  2.917E+00  4.229E+01  4.310E+00 -2.051E-01
   1   13    3     8     4    1.6591E+02 -3.7475E+00   1.6966E+02  0.000E+00  0.000E+00  0.000E+00  1.00606E+03  2.938E+00  4.260E+01  4.341E+00 -2.878E-01
   1   13    2     8     5    1.6966E+02 -2.6032E+00   1.7226E+02  0.000E+00  0.000E+00  0.000E+00  9.99833E+02  2.958E+00  4.290E+01  4.371E+00 -1.985E-01
   1   13    1     8     6    1.7226E+02 -1.9919E+00   1.7426E+02  0.000E+00  0.000E+00  0.000E+00  9.94848E+02  2.973E+00  4.311E+01  2.636E+00 -2.519E-01
   1    8    6     9     1    0.0000E+00  0.0000E+00   0.0000E+00  0.000E+00  0.000E+00  0.000E+00  1.07875E+03  0.000E+00  4.000E+00  0.000E+00  1.000E+00
   1    8    5     9     2    0.0000E+00  0.0000E+00   0.0000E+00  0.000E+00  0.000E+00  0.000E+00  1.07825E+03  0.000E+00  4.000E+00  0.000E+00  1.000E+00





UNSATURATED ZONE PACKAGE VOLUMETRIC BUDGET FOR  TIME STEP    30 STRESS PERIOD   14
  ------------------------------------------------------------------------------



     CUMULATIVE VOLUMES      L**3       RATES FOR THIS TIME STEP      L**3/T
     ------------------                 ------------------------

           IN:                                      IN:
           ---                                      ---
        INFILTRATION =   550468907.3708          INFILTRATION =           4.4075

          OUT:                                     OUT:
          ----                                     ----
              UZF ET =   499471877.2601                UZF ET =           0.7250
        UZF RECHARGE =       73224.0000          UZF RECHARGE =       0.0000E+00

            IN - OUT =    50923806.1107              IN - OUT =           3.6825

          STORAGE:                                 STORAGE:
          --------                                 --------
      STORAGE CHANGE =    50923798.4797        STORAGE CHANGE =           3.6825

 PERCENT DISCREPANCY IS DIFFERENCE BETWEEN IN-OUT MINUS CHANGE IN STORAGE
 DIVIDED BY THE AVERAGE OF IN AND OUT TIMES 100

 PERCENT DISCREPANCY =           0.00     PERCENT DISCREPANCY =           0.00






1
  VOLUMETRIC BUDGET FOR AGRICULTURAL FIELDS AT TIME STEP   30, STRESS PERIOD  14
  ------------------------------------------------------------------------------

     CUMULATIVE VOLUMES      L**3       RATES FOR THIS TIME STEP      L**3/T
     ------------------                 ------------------------

           IN:                                      IN:
           ---                                      ---
               AG WELLS  =    44249552.0000                 AG WELLS  =           0.0000
      DIVERSION SEGMENTS =   355446592.0000        DIVERSION SEGMENTS =           0.0000
           GW IRRIGATION =           0.0000             GW IRRIGATION =           0.0000
           SW IRRIGATION =           0.0000             SW IRRIGATION =           0.0000
        SYSTEM LOSSES GW =           0.0000          SYSTEM LOSSES GW =           0.0000
        SYSTEM LOSSES SW =           0.0000          SYSTEM LOSSES SW =           0.0000

                TOTAL IN =   399696128.0000                  TOTAL IN =           0.0000

          OUT:                                     OUT:
          ----                                     ----
               AG WELLS  =           0.0000                 AG WELLS  =           0.0000
      DIVERSION SEGMENTS =           0.0000        DIVERSION SEGMENTS =           0.0000
           GW IRRIGATION =    44249552.0000             GW IRRIGATION =           0.0000
           SW IRRIGATION =   355453760.0000             SW IRRIGATION =           0.0000
        SYSTEM LOSSES GW =           0.0000          SYSTEM LOSSES GW =           0.0000
        SYSTEM LOSSES SW =           0.0000          SYSTEM LOSSES SW =           0.0000

               TOTAL OUT =   399703296.0000                 TOTAL OUT =           0.0000

                IN - OUT =       -7168.0000                  IN - OUT =           0.0000

     PERCENT DISCREPANCY =          -0.00         PERCENT DISCREPANCY =           0.00



1
  VOLUMETRIC BUDGET FOR ENTIRE MODEL AT END OF TIME STEP   30, STRESS PERIOD  14
  ------------------------------------------------------------------------------

     CUMULATIVE VOLUMES      L**3       RATES FOR THIS TIME STEP      L**3/T
     ------------------                 ------------------------

           IN:                                      IN:
           ---                                      ---
             STORAGE     =    83217088.0000               STORAGE     =           1.0061
       CONSTANT HEAD     =           0.0000         CONSTANT HEAD     =           0.0000
     HEAD DEP BOUNDS     =     9794178.0000       HEAD DEP BOUNDS     =           0.2858
      STREAM LEAKAGE     =   407735744.0000        STREAM LEAKAGE     =          11.0321
        UZF RECHARGE     =       73223.9531          UZF RECHARGE     =           0.0000
               GW ET     =           0.0000                 GW ET     =           0.0000
     SURFACE LEAKAGE     =           0.0000       SURFACE LEAKAGE     =           0.0000
           AG WELLS      =           0.0000             AG WELLS      =           0.0000

                TOTAL IN =   500820224.0000                  TOTAL IN =          12.3240

          OUT:                                     OUT:
          ----                                     ----
             STORAGE     =    72732200.0000               STORAGE     =           0.9977
       CONSTANT HEAD     =           0.0000         CONSTANT HEAD     =           0.0000
     HEAD DEP BOUNDS     =     9962616.0000       HEAD DEP BOUNDS     =           0.2890
      STREAM LEAKAGE     =   372329440.0000        STREAM LEAKAGE     =          11.0373
        UZF RECHARGE     =           0.0000          UZF RECHARGE     =           0.0000
               GW ET     =     1532013.0000                 GW ET     =           0.0000
     SURFACE LEAKAGE     =           0.0000       SURFACE LEAKAGE     =           0.0000
           AG WELLS      =    44249552.0000             AG WELLS      =           0.0000

               TOTAL OUT =   500805824.0000                 TOTAL OUT =          12.3240

                IN - OUT =       14400.0000                  IN - OUT =       7.6294E-06

     PERCENT DISCREPANCY =           0.00         PERCENT DISCREPANCY =           0.00






         TIME SUMMARY AT END OF TIME STEP   30 IN STRESS PERIOD   14
                    SECONDS     MINUTES      HOURS       DAYS        YEARS
                    -----------------------------------------------------------
   TIME STEP LENGTH  87667.      1461.1      24.352      1.0147     2.77799E-03
 STRESS PERIOD TIME 2.63000E+06  43833.      730.56      30.440     8.33397E-02
         TOTAL TIME 3.42763E+07 5.71272E+05  9521.2      396.72      1.0862    
1
1
                            STRESS PERIOD NO.   15, LENGTH =   2630000.    
                            -----------------------------------------------

                              NUMBER OF TIME STEPS =    30

                               MULTIPLIER FOR DELT =     1.000

                            INITIAL TIME STEP SIZE =   87666.66    

 REUSING NON-PARAMETER GHB CELLS FROM LAST STRESS PERIOD

      2 GHB CELLS

 REUSING STREAM SEGMENT DATA FROM LAST STRESS PERIOD



            AREAL INFILTRATION RATE
 READING ON UNIT   19 WITH FORMAT: (10F4.0)            

            1           2           3           4           5           6           7           8           9          10
 ........................................................................................................................
   1   1.2000E-09   0.000       0.000       0.000       0.000       0.000       0.000       0.000       0.000       0.000    
   2   2.1000E-09  2.0000E-09  8.0000E-10  8.5000E-09   0.000       0.000       0.000       0.000       0.000       0.000    
   3   5.0000E-10  1.1000E-09  8.8000E-09  5.5000E-09   0.000       0.000       0.000       0.000       0.000       0.000    
   4   8.5000E-09  1.1000E-09  1.1000E-09  1.1000E-09  2.0000E-09   0.000       0.000       0.000       0.000       0.000    
   5   8.5000E-09  1.1000E-09  1.1000E-09  1.1000E-09  1.1000E-09   0.000       0.000       0.000       0.000       0.000    
   6   8.5000E-09  5.2000E-09  2.1000E-09  1.1000E-09  1.5000E-09   0.000       0.000       0.000       0.000       0.000    
   7   8.5000E-09  5.2000E-09  2.1000E-09  1.2000E-09  2.0000E-09   0.000       0.000       0.000       0.000       0.000    
   8   5.0000E-10  5.2000E-09  2.1000E-09  1.2000E-09  5.0000E-09   0.000       0.000       0.000       0.000       0.000    
   9   5.0000E-10  5.2000E-09  2.1000E-09  1.2000E-09  5.0000E-09   0.000       0.000       0.000       0.000       0.000    
  10   5.0000E-10  5.2000E-09  2.1000E-09  1.2000E-09  5.8000E-09   0.000       0.000       0.000       0.000       0.000    
  11   1.0000E-10  1.1000E-09  1.1000E-09  1.2000E-09  5.0000E-09   0.000       0.000       0.000       0.000       0.000    
  12   1.1000E-09  1.1000E-09  1.1000E-09  1.1000E-09  2.0000E-09   0.000       0.000       0.000       0.000       0.000    
  13   1.1000E-09  2.2000E-09  2.2000E-09  2.1000E-09  1.0000E-09   0.000       0.000       0.000       0.000       0.000    
  14   2.0000E-10  5.5000E-09  5.5000E-09  5.2000E-09  1.0000E-09   0.000       0.000       0.000       0.000       0.000    
  15    0.000      8.8000E-09  8.8000E-09   0.000       0.000       0.000       0.000       0.000       0.000       0.000    

                  ET RATE =  5.000000E-10

 USING ET EXTINCTION DEPTH FROM PREVIOUS STRESS PERIOD. CURRENT PERIOD IS:      15

 USING EXTINCTION WATER CONTENT FROM PREVIOUS STRESS PERIOD. CURRENT PERIOD IS:      15

 USING AIR ENTRY PRESSURE FROM PREVIOUS STRESS PERIOD. CURRENT PERIOD IS:      15

 USING ROOT PRESSURE HEAD FROM PREVIOUS STRESS PERIOD. CURRENT PERIOD IS:      15

 USING ROOT ACTIVITY FROM PREVIOUS STRESS PERIOD. CURRENT PERIOD IS:      15

 PROCESSING AG STRESS PERIOD DATA

 READING AG STRESS PERIOD DATA

 READING IRRIGATION SEGMENT

 READING IRRIGATION WELL

 READING SUPPLEMENTAL WELL

 END PROCESSING AG STRESS PERIOD DATA OPTIONS
 
 SOLVING FOR HEAD 
                                                   Max.-Head-Change                         Max.-Flux-Residual
  Residual-Control   Outer-Iter.   Inner-Iter.     Column Row Layer    Maximum-Head-Change  Column Row Layer    Maximum-Flux-Residual          L2-NORM 
          0                 1           2             4    7     1       0.1895106717E-02       4    7    1         0.9946317373E-01      0.2726827946E+00
          0                 2           2             4    7     1      -0.1843422848E-03       4    7    1        -0.9946322782E-02      0.2726355311E-01
          0                 3           1             4    7     1       0.1255302537E-04       4    7    1         0.6962428315E-03      0.1907973159E-02

    ------------------------------------------------
       NWT REQUIRED            3 OUTER ITERATIONS 
       AND A TOTAL OF          5 INNER ITERATIONS.
    ------------------------------------------------

 NO OUTPUT CONTROL FOR STRESS PERIOD   15   TIME STEP    1
 
 SOLVING FOR HEAD 
                                                   Max.-Head-Change                         Max.-Flux-Residual
  Residual-Control   Outer-Iter.   Inner-Iter.     Column Row Layer    Maximum-Head-Change  Column Row Layer    Maximum-Flux-Residual          L2-NORM 
          0                 1           2             4    7     1       0.1876228687E-02       4    7    1         0.9846704040E-01      0.2683100381E+00
          0                 2           2             4    7     1      -0.1825059654E-03       4    7    1        -0.9846709323E-02      0.2682963993E-01
          0                 3           1             4    7     1       0.1242797881E-04       4    7    1         0.6892699046E-03      0.1877966602E-02

    ------------------------------------------------
       NWT REQUIRED            3 OUTER ITERATIONS 
       AND A TOTAL OF          5 INNER ITERATIONS.
    ------------------------------------------------

 NO OUTPUT CONTROL FOR STRESS PERIOD   15   TIME STEP    2
 
 SOLVING FOR HEAD 
                                                   Max.-Head-Change                         Max.-Flux-Residual
  Residual-Control   Outer-Iter.   Inner-Iter.     Column Row Layer    Maximum-Head-Change  Column Row Layer    Maximum-Flux-Residual          L2-NORM 
          0                 1           2             4    7     1       0.1857680915E-02       4    7    1         0.9748823369E-01      0.2675906160E+00
          0                 2           2             4    7     1      -0.1807017713E-03       4    7    1        -0.9748828518E-02      0.2674843388E-01
          0                 3           1             4    7     1       0.1230512029E-04       4    7    1         0.6824182560E-03      0.1874864239E-02

    ------------------------------------------------
       NWT REQUIRED            3 OUTER ITERATIONS 
       AND A TOTAL OF          5 INNER ITERATIONS.
    ------------------------------------------------

 NO OUTPUT CONTROL FOR STRESS PERIOD   15   TIME STEP    3
 
 SOLVING FOR HEAD 
                                                   Max.-Head-Change                         Max.-Flux-Residual
  Residual-Control   Outer-Iter.   Inner-Iter.     Column Row Layer    Maximum-Head-Change  Column Row Layer    Maximum-Flux-Residual          L2-NORM 
          0                 1           2             4    7     1       0.1839448697E-02       4    7    1         0.9652655057E-01      0.2652787326E+00
          0                 2           2             4    7     1      -0.1789282716E-03       4    7    1        -0.9652660077E-02      0.2651898108E-01
          0                 3           1             4    7     1       0.1218435137E-04       4    7    1         0.6756864559E-03      0.1855457741E-02

    ------------------------------------------------
       NWT REQUIRED            3 OUTER ITERATIONS 
       AND A TOTAL OF          5 INNER ITERATIONS.
    ------------------------------------------------

 NO OUTPUT CONTROL FOR STRESS PERIOD   15   TIME STEP    4
 
 SOLVING FOR HEAD 
                                                   Max.-Head-Change                         Max.-Flux-Residual
  Residual-Control   Outer-Iter.   Inner-Iter.     Column Row Layer    Maximum-Head-Change  Column Row Layer    Maximum-Flux-Residual          L2-NORM 
          0                 1           2             4    7     1       0.1821530562E-02       4    7    1         0.9558122846E-01      0.2630805244E+00
          0                 2           2             4    7     1      -0.1771853244E-03       4    7    1        -0.9558127777E-02      0.2630066488E-01
          0                 3           1             4    7     1       0.1206566327E-04       4    7    1         0.6690691948E-03      0.1840331316E-02

    ------------------------------------------------
       NWT REQUIRED            3 OUTER ITERATIONS 
       AND A TOTAL OF          5 INNER ITERATIONS.
    ------------------------------------------------

 NO OUTPUT CONTROL FOR STRESS PERIOD   15   TIME STEP    5
 
 SOLVING FOR HEAD 
                                                   Max.-Head-Change                         Max.-Flux-Residual
  Residual-Control   Outer-Iter.   Inner-Iter.     Column Row Layer    Maximum-Head-Change  Column Row Layer    Maximum-Flux-Residual          L2-NORM 
          0                 1           2             4    7     1       0.1803643182E-02       4    7    1         0.9463737416E-01      0.2609534289E+00
          0                 2           2             4    7     1      -0.1754453683E-03       4    7    1        -0.9463742212E-02      0.2608923134E-01
          0                 3           1             4    7     1       0.1194717871E-04       4    7    1         0.6624622113E-03      0.1825680015E-02

    ------------------------------------------------
       NWT REQUIRED            3 OUTER ITERATIONS 
       AND A TOTAL OF          5 INNER ITERATIONS.
    ------------------------------------------------

 NO OUTPUT CONTROL FOR STRESS PERIOD   15   TIME STEP    6
 
 SOLVING FOR HEAD 
                                                   Max.-Head-Change                         Max.-Flux-Residual
  Residual-Control   Outer-Iter.   Inner-Iter.     Column Row Layer    Maximum-Head-Change  Column Row Layer    Maximum-Flux-Residual          L2-NORM 
          0                 1           2             4    7     1       0.1786337658E-02       4    7    1         0.9372474881E-01      0.2589125076E+00
          0                 2           2             4    7     1      -0.1737620109E-03       4    7    1        -0.9372479579E-02      0.2588619686E-01
          0                 3           1             4    7     1       0.1183254815E-04       4    7    1         0.6560738047E-03      0.1811613307E-02

    ------------------------------------------------
       NWT REQUIRED            3 OUTER ITERATIONS 
       AND A TOTAL OF          5 INNER ITERATIONS.
    ------------------------------------------------

 NO OUTPUT CONTROL FOR STRESS PERIOD   15   TIME STEP    7
 
 SOLVING FOR HEAD 
                                                   Max.-Head-Change                         Max.-Flux-Residual
  Residual-Control   Outer-Iter.   Inner-Iter.     Column Row Layer    Maximum-Head-Change  Column Row Layer    Maximum-Flux-Residual          L2-NORM 
          0                 1           2             4    7     1       0.1769049444E-02       4    7    1         0.9281265755E-01      0.2569339754E+00
          0                 2           2             4    7     1      -0.1720803375E-03       4    7    1        -0.9281270331E-02      0.2568929476E-01
          0                 3           1             4    7     1       0.1171803236E-04       4    7    1         0.6496891649E-03      0.1797830498E-02

    ------------------------------------------------
       NWT REQUIRED            3 OUTER ITERATIONS 
       AND A TOTAL OF          5 INNER ITERATIONS.
    ------------------------------------------------

 NO OUTPUT CONTROL FOR STRESS PERIOD   15   TIME STEP    8
 
 SOLVING FOR HEAD 
                                                   Max.-Head-Change                         Max.-Flux-Residual
  Residual-Control   Outer-Iter.   Inner-Iter.     Column Row Layer    Maximum-Head-Change  Column Row Layer    Maximum-Flux-Residual          L2-NORM 
          0                 1           2             4    7     1       0.1752050288E-02       4    7    1         0.9191628115E-01      0.2550039813E+00
          0                 2           2             4    7     1      -0.1704267818E-03       4    7    1        -0.9191632595E-02      0.2549702294E-01
          0                 3           1             4    7     1       0.1160543174E-04       4    7    1         0.6434145230E-03      0.1784457305E-02

    ------------------------------------------------
       NWT REQUIRED            3 OUTER ITERATIONS 
       AND A TOTAL OF          5 INNER ITERATIONS.
    ------------------------------------------------

 NO OUTPUT CONTROL FOR STRESS PERIOD   15   TIME STEP    9
 
 SOLVING FOR HEAD 
                                                   Max.-Head-Change                         Max.-Flux-Residual
  Residual-Control   Outer-Iter.   Inner-Iter.     Column Row Layer    Maximum-Head-Change  Column Row Layer    Maximum-Flux-Residual          L2-NORM 
          0                 1           2             4    7     1       0.1735341418E-02       4    7    1         0.9103489189E-01      0.2531484540E+00
          0                 2           2             4    7     1      -0.1688014631E-03       4    7    1        -0.9103493584E-02      0.2531211069E-01
          0                 3           1             4    7     1       0.1149475338E-04       4    7    1         0.6372447890E-03      0.1771485466E-02

    ------------------------------------------------
       NWT REQUIRED            3 OUTER ITERATIONS 
       AND A TOTAL OF          5 INNER ITERATIONS.
    ------------------------------------------------

 NO OUTPUT CONTROL FOR STRESS PERIOD   15   TIME STEP   10
 
 SOLVING FOR HEAD 
                                                   Max.-Head-Change                         Max.-Flux-Residual
  Residual-Control   Outer-Iter.   Inner-Iter.     Column Row Layer    Maximum-Head-Change  Column Row Layer    Maximum-Flux-Residual          L2-NORM 
          0                 1           2             4    7     1       0.1718909275E-02       4    7    1         0.9016855383E-01      0.2513356388E+00
          0                 2           2             4    7     1      -0.1672030620E-03       4    7    1        -0.9016859658E-02      0.2513127866E-01
          0                 3           1             4    7     1       0.1138590829E-04       4    7    1         0.6311804248E-03      0.1758986476E-02

    ------------------------------------------------
       NWT REQUIRED            3 OUTER ITERATIONS 
       AND A TOTAL OF          5 INNER ITERATIONS.
    ------------------------------------------------

 NO OUTPUT CONTROL FOR STRESS PERIOD   15   TIME STEP   11
 
 SOLVING FOR HEAD 
                                                   Max.-Head-Change                         Max.-Flux-Residual
  Residual-Control   Outer-Iter.   Inner-Iter.     Column Row Layer    Maximum-Head-Change  Column Row Layer    Maximum-Flux-Residual          L2-NORM 
          0                 1           2             4    7     1       0.1702751807E-02       4    7    1         0.8931656365E-01      0.2495689544E+00
          0                 2           2             4    7     1      -0.1656313797E-03       4    7    1        -0.8931660569E-02      0.2495513722E-01
          0                 3           1             4    7     1       0.1127888250E-04       4    7    1         0.6252164687E-03      0.1746687568E-02

    ------------------------------------------------
       NWT REQUIRED            3 OUTER ITERATIONS 
       AND A TOTAL OF          5 INNER ITERATIONS.
    ------------------------------------------------

 NO OUTPUT CONTROL FOR STRESS PERIOD   15   TIME STEP   12
 
 SOLVING FOR HEAD 
                                                   Max.-Head-Change                         Max.-Flux-Residual
  Residual-Control   Outer-Iter.   Inner-Iter.     Column Row Layer    Maximum-Head-Change  Column Row Layer    Maximum-Flux-Residual          L2-NORM 
          0                 1           2             4    7     1       0.1686859326E-02       4    7    1         0.8847881511E-01      0.2478376417E+00
          0                 2           2             4    7     1      -0.1640854730E-03       4    7    1        -0.8847885594E-02      0.2478235447E-01
          0                 3           1             4    7     1       0.1117361165E-04       4    7    1         0.6193522240E-03      0.1734671409E-02

    ------------------------------------------------
       NWT REQUIRED            3 OUTER ITERATIONS 
       AND A TOTAL OF          5 INNER ITERATIONS.
    ------------------------------------------------

 NO OUTPUT CONTROL FOR STRESS PERIOD   15   TIME STEP   13
 
 SOLVING FOR HEAD 
                                                   Max.-Head-Change                         Max.-Flux-Residual
  Residual-Control   Outer-Iter.   Inner-Iter.     Column Row Layer    Maximum-Head-Change  Column Row Layer    Maximum-Flux-Residual          L2-NORM 
          0                 1           2             4    7     1       0.1670951340E-02       4    7    1         0.8763998829E-01      0.2461477593E+00
          0                 2           2             4    7     1      -0.1625380584E-03       4    7    1        -0.8764002822E-02      0.2461376546E-01
          0                 3           1             4    7     1       0.1106823856E-04       4    7    1         0.6134804305E-03      0.1722960901E-02

    ------------------------------------------------
       NWT REQUIRED            3 OUTER ITERATIONS 
       AND A TOTAL OF          5 INNER ITERATIONS.
    ------------------------------------------------

 NO OUTPUT CONTROL FOR STRESS PERIOD   15   TIME STEP   14
 
 SOLVING FOR HEAD 
                                                   Max.-Head-Change                         Max.-Flux-Residual
  Residual-Control   Outer-Iter.   Inner-Iter.     Column Row Layer    Maximum-Head-Change  Column Row Layer    Maximum-Flux-Residual          L2-NORM 
          0                 1           2             4    7     1       0.1655586569E-02       4    7    1         0.8682999271E-01      0.2444933151E+00
          0                 2           2             4    7     1      -0.1610434839E-03       4    7    1        -0.8683003189E-02      0.2444844590E-01
          0                 3           1             4    7     1       0.1096646384E-04       4    7    1         0.6078104489E-03      0.1711309179E-02

    ------------------------------------------------
       NWT REQUIRED            3 OUTER ITERATIONS 
       AND A TOTAL OF          5 INNER ITERATIONS.
    ------------------------------------------------

 NO OUTPUT CONTROL FOR STRESS PERIOD   15   TIME STEP   15
 
 SOLVING FOR HEAD 
                                                   Max.-Head-Change                         Max.-Flux-Residual
  Residual-Control   Outer-Iter.   Inner-Iter.     Column Row Layer    Maximum-Head-Change  Column Row Layer    Maximum-Flux-Residual          L2-NORM 
          0                 1           2             4    7     1       0.1640194762E-02       4    7    1         0.8601852701E-01      0.2428700907E+00
          0                 2           2             4    7     1      -0.1595462797E-03       4    7    1        -0.8601856537E-02      0.2428631930E-01
          0                 3           1             4    7     1       0.1086450973E-04       4    7    1         0.6021301795E-03      0.1699923456E-02

    ------------------------------------------------
       NWT REQUIRED            3 OUTER ITERATIONS 
       AND A TOTAL OF          5 INNER ITERATIONS.
    ------------------------------------------------

 NO OUTPUT CONTROL FOR STRESS PERIOD   15   TIME STEP   16
 
 SOLVING FOR HEAD 
                                                   Max.-Head-Change                         Max.-Flux-Residual
  Residual-Control   Outer-Iter.   Inner-Iter.     Column Row Layer    Maximum-Head-Change  Column Row Layer    Maximum-Flux-Residual          L2-NORM 
          0                 1           2             4    7     1       0.1625052814E-02       4    7    1         0.8522047717E-01      0.2412733156E+00
          0                 2           2             4    7     1      -0.1580733799E-03       4    7    1        -0.8522051462E-02      0.2412700860E-01
          0                 3           1             4    7     1       0.1076421068E-04       4    7    1         0.5965438286E-03      0.1688851784E-02

    ------------------------------------------------
       NWT REQUIRED            3 OUTER ITERATIONS 
       AND A TOTAL OF          5 INNER ITERATIONS.
    ------------------------------------------------

 NO OUTPUT CONTROL FOR STRESS PERIOD   15   TIME STEP   17
 
 SOLVING FOR HEAD 
                                                   Max.-Head-Change                         Max.-Flux-Residual
  Residual-Control   Outer-Iter.   Inner-Iter.     Column Row Layer    Maximum-Head-Change  Column Row Layer    Maximum-Flux-Residual          L2-NORM 
          0                 1           2             4    7     1       0.1610153063E-02       4    7    1         0.8443538221E-01      0.2396948591E+00
          0                 2           2             4    7     1      -0.1566240391E-03       4    7    1        -0.8443541884E-02      0.2396906650E-01
          0                 3           1             4    7     1       0.1066551603E-04       4    7    1         0.5910481575E-03      0.1677819343E-02

    ------------------------------------------------
       NWT REQUIRED            3 OUTER ITERATIONS 
       AND A TOTAL OF          5 INNER ITERATIONS.
    ------------------------------------------------

 NO OUTPUT CONTROL FOR STRESS PERIOD   15   TIME STEP   18
 
 SOLVING FOR HEAD 
                                                   Max.-Head-Change                         Max.-Flux-Residual
  Residual-Control   Outer-Iter.   Inner-Iter.     Column Row Layer    Maximum-Head-Change  Column Row Layer    Maximum-Flux-Residual          L2-NORM 
          0                 1           2             4    7     1       0.1595493433E-02       4    7    1         0.8366284483E-01      0.2381592140E+00
          0                 2           2             4    7     1      -0.1551980555E-03       4    7    1        -0.8366288066E-02      0.2381561276E-01
          0                 3           1             4    7     1       0.1056841183E-04       4    7    1         0.5856403816E-03      0.1667081395E-02

    ------------------------------------------------
       NWT REQUIRED            3 OUTER ITERATIONS 
       AND A TOTAL OF          5 INNER ITERATIONS.
    ------------------------------------------------

 NO OUTPUT CONTROL FOR STRESS PERIOD   15   TIME STEP   19
 
 SOLVING FOR HEAD 
                                                   Max.-Head-Change                         Max.-Flux-Residual
  Residual-Control   Outer-Iter.   Inner-Iter.     Column Row Layer    Maximum-Head-Change  Column Row Layer    Maximum-Flux-Residual          L2-NORM 
          0                 1           2             4    7     1       0.1581072294E-02       4    7    1         0.8290275753E-01      0.2366451948E+00
          0                 2           2             4    7     1      -0.1537952714E-03       4    7    1        -0.8290279265E-02      0.2366430054E-01
          0                 3           1             4    7     1       0.1047288765E-04       4    7    1         0.5803197857E-03      0.1656475772E-02

    ------------------------------------------------
       NWT REQUIRED            3 OUTER ITERATIONS 
       AND A TOTAL OF          5 INNER ITERATIONS.
    ------------------------------------------------

 NO OUTPUT CONTROL FOR STRESS PERIOD   15   TIME STEP   20
 
 SOLVING FOR HEAD 
                                                   Max.-Head-Change                         Max.-Flux-Residual
  Residual-Control   Outer-Iter.   Inner-Iter.     Column Row Layer    Maximum-Head-Change  Column Row Layer    Maximum-Flux-Residual          L2-NORM 
          0                 1           2             4    7     1       0.1566881051E-02       4    7    1         0.8215503581E-01      0.2351595437E+00
          0                 2           2             4    7     1      -0.1524148492E-03       4    7    1        -0.8215507009E-02      0.2351580090E-01
          0                 3           1             4    7     1       0.1037888600E-04       4    7    1         0.5750857322E-03      0.1646097457E-02

    ------------------------------------------------
       NWT REQUIRED            3 OUTER ITERATIONS 
       AND A TOTAL OF          5 INNER ITERATIONS.
    ------------------------------------------------

 NO OUTPUT CONTROL FOR STRESS PERIOD   15   TIME STEP   21
 
 SOLVING FOR HEAD 
                                                   Max.-Head-Change                         Max.-Flux-Residual
  Residual-Control   Outer-Iter.   Inner-Iter.     Column Row Layer    Maximum-Head-Change  Column Row Layer    Maximum-Flux-Residual          L2-NORM 
          0                 1           2             4    7     1       0.1552909176E-02       4    7    1         0.8141923390E-01      0.2336898671E+00
          0                 2           2             4    7     1      -0.1510557655E-03       4    7    1        -0.8141926757E-02      0.2336888702E-01
          0                 3           1             4    7     1       0.1028633705E-04       4    7    1         0.5699350781E-03      0.1635830537E-02

    ------------------------------------------------
       NWT REQUIRED            3 OUTER ITERATIONS 
       AND A TOTAL OF          5 INNER ITERATIONS.
    ------------------------------------------------

 NO OUTPUT CONTROL FOR STRESS PERIOD   15   TIME STEP   22
 
 SOLVING FOR HEAD 
                                                   Max.-Head-Change                         Max.-Flux-Residual
  Residual-Control   Outer-Iter.   Inner-Iter.     Column Row Layer    Maximum-Head-Change  Column Row Layer    Maximum-Flux-Residual          L2-NORM 
          0                 1           2             4    7     1       0.1538887217E-02       4    7    1         0.8067998785E-01      0.2322459447E+00
          0                 2           2             4    7     1      -0.1496918097E-03       4    7    1        -0.8068002053E-02      0.2322449597E-01
          0                 3           1             4    7     1       0.1019345675E-04       4    7    1         0.5647603434E-03      0.1625649724E-02

    ------------------------------------------------
       NWT REQUIRED            3 OUTER ITERATIONS 
       AND A TOTAL OF          5 INNER ITERATIONS.
    ------------------------------------------------

 NO OUTPUT CONTROL FOR STRESS PERIOD   15   TIME STEP   23
 
 SOLVING FOR HEAD 
                                                   Max.-Head-Change                         Max.-Flux-Residual
  Residual-Control   Outer-Iter.   Inner-Iter.     Column Row Layer    Maximum-Head-Change  Column Row Layer    Maximum-Flux-Residual          L2-NORM 
          0                 1           2             4    7     1       0.1525362189E-02       4    7    1         0.7996778130E-01      0.2308254501E+00
          0                 2           2             4    7     1      -0.1483761926E-03       4    7    1        -0.7996781354E-02      0.2308248282E-01
          0                 3           1             4    7     1       0.1010386811E-04       4    7    1         0.5597748950E-03      0.1615782871E-02

    ------------------------------------------------
       NWT REQUIRED            3 OUTER ITERATIONS 
       AND A TOTAL OF          5 INNER ITERATIONS.
    ------------------------------------------------

 NO OUTPUT CONTROL FOR STRESS PERIOD   15   TIME STEP   24
 
 SOLVING FOR HEAD 
                                                   Max.-Head-Change                         Max.-Flux-Residual
  Residual-Control   Outer-Iter.   Inner-Iter.     Column Row Layer    Maximum-Head-Change  Column Row Layer    Maximum-Flux-Residual          L2-NORM 
          0                 1           2             4    7     1       0.1511769171E-02       4    7    1         0.7925170373E-01      0.2294192074E+00
          0                 2           2             4    7     1      -0.1470539617E-03       4    7    1        -0.7925173529E-02      0.2294189845E-01
          0                 3           1             4    7     1       0.1001382931E-04       4    7    1         0.5547623480E-03      0.1605943862E-02

    ------------------------------------------------
       NWT REQUIRED            3 OUTER ITERATIONS 
       AND A TOTAL OF          5 INNER ITERATIONS.
    ------------------------------------------------

 NO OUTPUT CONTROL FOR STRESS PERIOD   15   TIME STEP   25
 
 SOLVING FOR HEAD 
                                                   Max.-Head-Change                         Max.-Flux-Residual
  Residual-Control   Outer-Iter.   Inner-Iter.     Column Row Layer    Maximum-Head-Change  Column Row Layer    Maximum-Flux-Residual          L2-NORM 
          0                 1           2             4    7     1       0.1498394847E-02       4    7    1         0.7854691911E-01      0.2280356881E+00
          0                 2           2             4    7     1      -0.1457530039E-03       4    7    1        -0.7854694994E-02      0.2280351452E-01
          0                 3           1             4    7     1       0.9925239193E-05       4    7    1         0.5498288724E-03      0.1596207185E-02

    ------------------------------------------------
       NWT REQUIRED            3 OUTER ITERATIONS 
       AND A TOTAL OF          5 INNER ITERATIONS.
    ------------------------------------------------

 NO OUTPUT CONTROL FOR STRESS PERIOD   15   TIME STEP   26
 
 SOLVING FOR HEAD 
                                                   Max.-Head-Change                         Max.-Flux-Residual
  Residual-Control   Outer-Iter.   Inner-Iter.     Column Row Layer    Maximum-Head-Change  Column Row Layer    Maximum-Flux-Residual          L2-NORM 
          0                 1           2             4    7     1       0.1485500460E-02       4    7    1         0.7786829180E-01      0.2266714330E+00
          0                 2           2             4    7     1      -0.1444987306E-03       4    7    1        -0.7786832200E-02      0.2266710186E-01
          0                 3           1             4    7     1       0.9839827359E-05       4    7    1         0.5450784672E-03      0.1586698719E-02

    ------------------------------------------------
       NWT REQUIRED            3 OUTER ITERATIONS 
       AND A TOTAL OF          5 INNER ITERATIONS.
    ------------------------------------------------

 NO OUTPUT CONTROL FOR STRESS PERIOD   15   TIME STEP   27
 
 SOLVING FOR HEAD 
                                                   Max.-Head-Change                         Max.-Flux-Residual
  Residual-Control   Outer-Iter.   Inner-Iter.     Column Row Layer    Maximum-Head-Change  Column Row Layer    Maximum-Flux-Residual          L2-NORM 
          0                 1           2             4    7     1       0.1472526068E-02       4    7    1         0.7718491214E-01      0.2253290438E+00
          0                 2           2             4    7     1      -0.1432366753E-03       4    7    1        -0.7718494180E-02      0.2253287824E-01
          0                 3           1             4    7     1       0.9753885851E-05       4    7    1         0.5402948022E-03      0.1577286373E-02

    ------------------------------------------------
       NWT REQUIRED            3 OUTER ITERATIONS 
       AND A TOTAL OF          5 INNER ITERATIONS.
    ------------------------------------------------

 NO OUTPUT CONTROL FOR STRESS PERIOD   15   TIME STEP   28
 
 SOLVING FOR HEAD 
                                                   Max.-Head-Change                         Max.-Flux-Residual
  Residual-Control   Outer-Iter.   Inner-Iter.     Column Row Layer    Maximum-Head-Change  Column Row Layer    Maximum-Flux-Residual          L2-NORM 
          0                 1           2             4   13     1       0.4545742801E-02       4   13    1         0.2610331207E+00      0.5494399515E+00
          0                 2           2             7   13     1      -0.9426276750E-03       7   13    1        -0.5227368338E-01      0.7363713602E-01
          0                 3           1             7   13     1       0.6417123825E-04       7   13    1         0.3658126571E-02      0.5075283171E-02

    ------------------------------------------------
       NWT REQUIRED            3 OUTER ITERATIONS 
       AND A TOTAL OF          5 INNER ITERATIONS.
    ------------------------------------------------

 NO OUTPUT CONTROL FOR STRESS PERIOD   15   TIME STEP   29
 
 SOLVING FOR HEAD 
                                                   Max.-Head-Change                         Max.-Flux-Residual
  Residual-Control   Outer-Iter.   Inner-Iter.     Column Row Layer    Maximum-Head-Change  Column Row Layer    Maximum-Flux-Residual          L2-NORM 
          0                 1           2             4   13     1       0.2187685716E-01       4   13    1         0.1262613967E+01      0.2309903068E+01
          0                 2           2             4   13     1      -0.2104771606E-02       4   13    1        -0.1249024910E+00      0.2242590241E+00
          0                 3           2             4   13     1       0.1411547204E-03       4   13    1         0.8612543473E-02      0.1506957591E-01
          0                 4           1             4   13     1      -0.5481379900E-05       4   13    1        -0.3438999001E-03      0.5766374574E-03

    ------------------------------------------------
       NWT REQUIRED            4 OUTER ITERATIONS 
       AND A TOTAL OF          7 INNER ITERATIONS.
    ------------------------------------------------

 NO OUTPUT CONTROL FOR STRESS PERIOD   15   TIME STEP   30



 STREAM LISTING     PERIOD     15   STEP       30

 LAYER ROW COL. STREAM  RCH.  FLOW INTO     FLOW TO   FLOW OUT OF   OVRLND.     DIRECT     STREAM       STREAM     STREAM     STREAM   STREAMBED  STREAMBED
                SEG.NO.  NO.  STRM. RCH.    AQUIFER    STRM. RCH.    RUNOFF     PRECIP       ET          HEAD       DEPTH      WIDTH   CONDCTNC.   GRADIENT

   1    1    1     1     1    7.3501E+01  4.1745E-01   7.3084E+01  0.000E+00  0.000E+00  0.000E+00  1.09473E+03  1.681E+00  1.982E+01  8.917E-02  1.560E+00
   1    2    2     1     2    7.3084E+01  6.4666E-01   7.2437E+01  0.000E+00  0.000E+00  0.000E+00  1.08973E+03  1.675E+00  1.976E+01  1.383E-01  1.558E+00
   1    3    3     1     3    7.2437E+01  5.5167E-01   7.1885E+01  0.000E+00  0.000E+00  0.000E+00  1.08409E+03  1.669E+00  1.969E+01  1.182E-01  1.556E+00
   1    3    4     1     4    7.1885E+01  5.0815E-01   7.1377E+01  0.000E+00  0.000E+00  0.000E+00  1.07907E+03  1.663E+00  1.963E+01  1.090E-01  1.554E+00
   1    4    5     2     1    6.9377E+01  4.0746E-01   6.8970E+01  0.000E+00  0.000E+00  0.000E+00  1.07416E+03  2.224E+00  1.200E+01  7.800E-02  1.741E+00
   1    5    6     2     2    6.8970E+01  3.1301E-01   6.8657E+01  0.000E+00  0.000E+00  0.000E+00  1.06873E+03  2.217E+00  1.200E+01  6.000E-02  1.739E+00
   1    6    6     2     3    6.8657E+01  3.1265E-01   6.8344E+01  0.000E+00  0.000E+00  0.000E+00  1.06400E+03  2.211E+00  1.200E+01  6.000E-02  1.737E+00
   1    7    6     2     4    6.8344E+01  3.1229E-01   6.8032E+01  0.000E+00  0.000E+00  0.000E+00  1.05928E+03  2.205E+00  1.200E+01  6.000E-02  1.735E+00
   1    8    6     2     5    6.8032E+01  3.1192E-01   6.7720E+01  0.000E+00  0.000E+00  0.000E+00  1.05456E+03  2.199E+00  1.200E+01  6.000E-02  1.733E+00
   1    3    5     3     1    2.0000E+00  2.8252E-01   1.7175E+00  0.000E+00  0.000E+00  0.000E+00  1.07555E+03  1.909E+00  9.636E+00  7.227E-02  1.955E+00
   1    3    6     3     2    1.7175E+00  2.4905E-01   1.4684E+00  0.000E+00  0.000E+00  0.000E+00  1.07264E+03  1.727E+00  8.909E+00  6.682E-02  1.864E+00
   1    3    7     3     3    1.4684E+00  1.9718E-01   1.2712E+00  0.000E+00  0.000E+00  0.000E+00  1.06987E+03  1.555E+00  8.218E+00  5.547E-02  1.777E+00
   1    4    8     3     4    1.2712E+00  2.2567E-01   1.0456E+00  0.000E+00  0.000E+00  0.000E+00  1.06682E+03  1.364E+00  7.455E+00  6.709E-02  1.682E+00
   1    5    8     3     5    1.0456E+00  1.5790E-01   8.8768E-01  0.000E+00  0.000E+00  0.000E+00  1.06362E+03  1.164E+00  6.655E+00  4.991E-02  1.582E+00
   1    6    8     3     6    8.8768E-01  5.5980E-02   8.3170E-01  0.000E+00  0.000E+00  0.000E+00  1.06158E+03  1.036E+00  6.145E+00  1.844E-02  1.518E+00
   1    5   10     4     1    1.0000E+01  9.0919E-02   9.9091E+00  0.000E+00  0.000E+00  0.000E+00  1.07836E+03  6.368E-01  1.000E+01  2.500E-02  1.212E+00
   1    5    9     4     2    9.9091E+00  1.8158E-01   9.7275E+00  0.000E+00  0.000E+00  0.000E+00  1.07154E+03  6.315E-01  1.000E+01  5.000E-02  1.211E+00
   1    6    8     4     3    9.7275E+00  1.2689E-01   9.6006E+00  0.000E+00  0.000E+00  0.000E+00  1.06381E+03  6.256E-01  1.000E+01  3.500E-02  1.209E+00
   1    6    8     5     1    1.0432E+01  2.2686E-01   1.0205E+01  0.000E+00  0.000E+00  0.000E+00  1.05868E+03  6.790E-01  1.542E+01  6.166E-02  1.226E+00
   1    7    7     5     2    1.0205E+01  2.7894E-01   9.9265E+00  0.000E+00  0.000E+00  0.000E+00  1.05417E+03  6.732E-01  1.519E+01  7.594E-02  1.224E+00
   1    8    7     5     3    9.9265E+00  1.9221E-01   9.7343E+00  0.000E+00  0.000E+00  0.000E+00  1.04992E+03  6.676E-01  1.497E+01  5.241E-02  1.223E+00
   1    8    6     5     4    9.7343E+00  1.3577E-01   9.5985E+00  0.000E+00  0.000E+00  0.000E+00  1.04691E+03  6.637E-01  1.482E+01  3.706E-02  1.221E+00
   1    9    6     6     1    7.7318E+01  3.2406E-01   7.6994E+01  0.000E+00  0.000E+00  0.000E+00  1.04513E+03  2.401E+00  1.200E+01  6.000E-02  1.800E+00
   1   10    7     6     2    7.6994E+01  3.2370E-01   7.6671E+01  0.000E+00  0.000E+00  0.000E+00  1.04058E+03  2.395E+00  1.200E+01  6.000E-02  1.798E+00
   1   11    7     6     3    7.6671E+01  3.2333E-01   7.6347E+01  0.000E+00  0.000E+00  0.000E+00  1.03603E+03  2.389E+00  1.200E+01  6.000E-02  1.796E+00
   1   12    7     6     4    7.6347E+01  3.2297E-01   7.6024E+01  0.000E+00  0.000E+00  0.000E+00  1.03147E+03  2.383E+00  1.200E+01  6.000E-02  1.794E+00
   1   13    7     6     5    7.6024E+01  2.8147E-02   7.5996E+01  0.000E+00  0.000E+00  0.000E+00  1.02829E+03  2.380E+00  1.200E+01  2.400E-02  3.909E-01
   1   14    9     7     1    1.5000E+02  1.3360E+00   1.4866E+02  0.000E+00  0.000E+00  0.000E+00  1.03987E+03  2.288E+00  5.529E+01  5.593E-01  7.962E-01
   1   13    8     7     2    1.4866E+02  1.8231E+00   1.4684E+02  0.000E+00  0.000E+00  0.000E+00  1.03478E+03  2.279E+00  5.526E+01  6.148E-01  9.885E-01
   1   13    7     7     3    1.4684E+02  1.4375E+00   1.4540E+02  0.000E+00  0.000E+00  0.000E+00  1.02969E+03  2.271E+00  5.522E+01  5.585E-01  8.580E-01
   1   13    6     8     1    2.2140E+02  1.1186E+00   2.2028E+02  0.000E+00  0.000E+00  0.000E+00  1.02513E+03  3.257E+00  4.722E+01  4.812E-01  7.749E-01
   1   13    5     8     2    2.2028E+02  2.9187E-01   2.1999E+02  0.000E+00  0.000E+00  0.000E+00  1.01888E+03  3.253E+00  4.716E+01  4.806E-01  2.024E-01
   1   13    4     8     3    2.1999E+02 -1.4555E+00   2.2144E+02  0.000E+00  0.000E+00  0.000E+00  1.01263E+03  3.256E+00  4.721E+01  4.811E+00 -1.008E-01
   1   13    3     8     4    2.2144E+02 -2.6953E+00   2.2414E+02  0.000E+00  0.000E+00  0.000E+00  1.00639E+03  3.267E+00  4.738E+01  4.828E+00 -1.861E-01
   1   13    2     8     5    2.2414E+02 -1.4670E+00   2.2561E+02  0.000E+00  0.000E+00  0.000E+00  1.00015E+03  3.279E+00  4.754E+01  4.845E+00 -1.009E-01
   1   13    1     8     6    2.2561E+02 -1.3335E+00   2.2694E+02  0.000E+00  0.000E+00  0.000E+00  9.95161E+02  3.286E+00  4.765E+01  2.914E+00 -1.526E-01
   1    8    6     9     1    0.0000E+00  0.0000E+00   0.0000E+00  0.000E+00  0.000E+00  0.000E+00  1.07875E+03  0.000E+00  4.000E+00  0.000E+00  1.000E+00
   1    8    5     9     2    0.0000E+00  0.0000E+00   0.0000E+00  0.000E+00  0.000E+00  0.000E+00  1.07825E+03  0.000E+00  4.000E+00  0.000E+00  1.000E+00





UNSATURATED ZONE PACKAGE VOLUMETRIC BUDGET FOR  TIME STEP    30 STRESS PERIOD   15
  ------------------------------------------------------------------------------



     CUMULATIVE VOLUMES      L**3       RATES FOR THIS TIME STEP      L**3/T
     ------------------                 ------------------------

           IN:                                      IN:
           ---                                      ---
        INFILTRATION =   562060631.9290          INFILTRATION =           4.4075

          OUT:                                     OUT:
          ----                                     ----
              UZF ET =   501378627.1279                UZF ET =           0.7250
        UZF RECHARGE =       73224.0000          UZF RECHARGE =       0.0000E+00

            IN - OUT =    60608780.8010              IN - OUT =           3.6825

          STORAGE:                                 STORAGE:
          --------                                 --------
      STORAGE CHANGE =    60608773.1017        STORAGE CHANGE =           3.6825

 PERCENT DISCREPANCY IS DIFFERENCE BETWEEN IN-OUT MINUS CHANGE IN STORAGE
 DIVIDED BY THE AVERAGE OF IN AND OUT TIMES 100

 PERCENT DISCREPANCY =           0.00     PERCENT DISCREPANCY =           0.00






1
  VOLUMETRIC BUDGET FOR AGRICULTURAL FIELDS AT TIME STEP   30, STRESS PERIOD  15
  ------------------------------------------------------------------------------

     CUMULATIVE VOLUMES      L**3       RATES FOR THIS TIME STEP      L**3/T
     ------------------                 ------------------------

           IN:                                      IN:
           ---                                      ---
               AG WELLS  =    44249552.0000                 AG WELLS  =           0.0000
      DIVERSION SEGMENTS =   355446592.0000        DIVERSION SEGMENTS =           0.0000
           GW IRRIGATION =           0.0000             GW IRRIGATION =           0.0000
           SW IRRIGATION =           0.0000             SW IRRIGATION =           0.0000
        SYSTEM LOSSES GW =           0.0000          SYSTEM LOSSES GW =           0.0000
        SYSTEM LOSSES SW =           0.0000          SYSTEM LOSSES SW =           0.0000

                TOTAL IN =   399696128.0000                  TOTAL IN =           0.0000

          OUT:                                     OUT:
          ----                                     ----
               AG WELLS  =           0.0000                 AG WELLS  =           0.0000
      DIVERSION SEGMENTS =           0.0000        DIVERSION SEGMENTS =           0.0000
           GW IRRIGATION =    44249552.0000             GW IRRIGATION =           0.0000
           SW IRRIGATION =   355453760.0000             SW IRRIGATION =           0.0000
        SYSTEM LOSSES GW =           0.0000          SYSTEM LOSSES GW =           0.0000
        SYSTEM LOSSES SW =           0.0000          SYSTEM LOSSES SW =           0.0000

               TOTAL OUT =   399703296.0000                 TOTAL OUT =           0.0000

                IN - OUT =       -7168.0000                  IN - OUT =           0.0000

     PERCENT DISCREPANCY =          -0.00         PERCENT DISCREPANCY =           0.00



1
  VOLUMETRIC BUDGET FOR ENTIRE MODEL AT END OF TIME STEP   30, STRESS PERIOD  15
  ------------------------------------------------------------------------------

     CUMULATIVE VOLUMES      L**3       RATES FOR THIS TIME STEP      L**3/T
     ------------------                 ------------------------

           IN:                                      IN:
           ---                                      ---
             STORAGE     =    85313776.0000               STORAGE     =           0.5641
       CONSTANT HEAD     =           0.0000         CONSTANT HEAD     =           0.0000
     HEAD DEP BOUNDS     =    10545738.0000       HEAD DEP BOUNDS     =           0.2858
      STREAM LEAKAGE     =   437264096.0000        STREAM LEAKAGE     =          13.5120
        UZF RECHARGE     =       73223.9531          UZF RECHARGE     =           0.0000
               GW ET     =           0.0000                 GW ET     =           0.0000
     SURFACE LEAKAGE     =           0.0000       SURFACE LEAKAGE     =           0.0000
           AG WELLS      =           0.0000             AG WELLS      =           0.0000

                TOTAL IN =   533196832.0000                  TOTAL IN =          14.3619

          OUT:                                     OUT:
          ----                                     ----
             STORAGE     =    75962064.0000               STORAGE     =           7.1211
       CONSTANT HEAD     =           0.0000         CONSTANT HEAD     =           0.0000
     HEAD DEP BOUNDS     =    10722680.0000       HEAD DEP BOUNDS     =           0.2895
      STREAM LEAKAGE     =   400716320.0000        STREAM LEAKAGE     =           6.9512
        UZF RECHARGE     =           0.0000          UZF RECHARGE     =           0.0000
               GW ET     =     1532013.0000                 GW ET     =           0.0000
     SURFACE LEAKAGE     =           0.0000       SURFACE LEAKAGE     =           0.0000
           AG WELLS      =    44249552.0000             AG WELLS      =           0.0000

               TOTAL OUT =   533182592.0000                 TOTAL OUT =          14.3619

                IN - OUT =       14240.0000                  IN - OUT =       2.6703E-05

     PERCENT DISCREPANCY =           0.00         PERCENT DISCREPANCY =           0.00






         TIME SUMMARY AT END OF TIME STEP   30 IN STRESS PERIOD   15
                    SECONDS     MINUTES      HOURS       DAYS        YEARS
                    -----------------------------------------------------------
   TIME STEP LENGTH  87667.      1461.1      24.352      1.0147     2.77799E-03
 STRESS PERIOD TIME 2.63000E+06  43833.      730.56      30.440     8.33397E-02
         TOTAL TIME 3.69063E+07 6.15106E+05  10252.      427.16      1.1695    
1
1
                            STRESS PERIOD NO.   16, LENGTH =   2630000.    
                            -----------------------------------------------

                              NUMBER OF TIME STEPS =    30

                               MULTIPLIER FOR DELT =     1.000

                            INITIAL TIME STEP SIZE =   87666.66    

 REUSING NON-PARAMETER GHB CELLS FROM LAST STRESS PERIOD

      2 GHB CELLS

 REUSING STREAM SEGMENT DATA FROM LAST STRESS PERIOD



            AREAL INFILTRATION RATE
 READING ON UNIT   19 WITH FORMAT: (10F4.0)            

            1           2           3           4           5           6           7           8           9          10
 ........................................................................................................................
   1   1.2000E-09   0.000       0.000       0.000       0.000       0.000       0.000       0.000       0.000       0.000    
   2   2.1000E-09  2.0000E-09  8.0000E-10  8.5000E-09   0.000       0.000       0.000       0.000       0.000       0.000    
   3   5.0000E-10  1.1000E-09  8.8000E-09  5.5000E-09   0.000       0.000       0.000       0.000       0.000       0.000    
   4   8.5000E-09  1.1000E-09  1.1000E-09  1.1000E-09  2.0000E-09   0.000       0.000       0.000       0.000       0.000    
   5   8.5000E-09  1.1000E-09  1.1000E-09  1.1000E-09  1.1000E-09   0.000       0.000       0.000       0.000       0.000    
   6   8.5000E-09  5.2000E-09  2.1000E-09  1.1000E-09  1.5000E-09   0.000       0.000       0.000       0.000       0.000    
   7   8.5000E-09  5.2000E-09  2.1000E-09  1.2000E-09  2.0000E-09   0.000       0.000       0.000       0.000       0.000    
   8   5.0000E-10  5.2000E-09  2.1000E-09  1.2000E-09  5.0000E-09   0.000       0.000       0.000       0.000       0.000    
   9   5.0000E-10  5.2000E-09  2.1000E-09  1.2000E-09  5.0000E-09   0.000       0.000       0.000       0.000       0.000    
  10   5.0000E-10  5.2000E-09  2.1000E-09  1.2000E-09  5.8000E-09   0.000       0.000       0.000       0.000       0.000    
  11   1.0000E-10  1.1000E-09  1.1000E-09  1.2000E-09  5.0000E-09   0.000       0.000       0.000       0.000       0.000    
  12   1.1000E-09  1.1000E-09  1.1000E-09  1.1000E-09  2.0000E-09   0.000       0.000       0.000       0.000       0.000    
  13   1.1000E-09  2.2000E-09  2.2000E-09  2.1000E-09  1.0000E-09   0.000       0.000       0.000       0.000       0.000    
  14   2.0000E-10  5.5000E-09  5.5000E-09  5.2000E-09  1.0000E-09   0.000       0.000       0.000       0.000       0.000    
  15    0.000      8.8000E-09  8.8000E-09   0.000       0.000       0.000       0.000       0.000       0.000       0.000    

                  ET RATE =  5.000000E-10

 USING ET EXTINCTION DEPTH FROM PREVIOUS STRESS PERIOD. CURRENT PERIOD IS:      16

 USING EXTINCTION WATER CONTENT FROM PREVIOUS STRESS PERIOD. CURRENT PERIOD IS:      16

 USING AIR ENTRY PRESSURE FROM PREVIOUS STRESS PERIOD. CURRENT PERIOD IS:      16

 USING ROOT PRESSURE HEAD FROM PREVIOUS STRESS PERIOD. CURRENT PERIOD IS:      16

 USING ROOT ACTIVITY FROM PREVIOUS STRESS PERIOD. CURRENT PERIOD IS:      16

 PROCESSING AG STRESS PERIOD DATA

 READING AG STRESS PERIOD DATA

 READING IRRIGATION SEGMENT

 READING IRRIGATION WELL

 READING SUPPLEMENTAL WELL

 END PROCESSING AG STRESS PERIOD DATA OPTIONS
 
 SOLVING FOR HEAD 
                                                   Max.-Head-Change                         Max.-Flux-Residual
  Residual-Control   Outer-Iter.   Inner-Iter.     Column Row Layer    Maximum-Head-Change  Column Row Layer    Maximum-Flux-Residual          L2-NORM 
          0                 1           2             2   13     1       0.1972148147E-01       4   13    1         0.1137203547E+01      0.2135755125E+01
          0                 2           2             4   13     1      -0.1870705258E-02       4   13    1        -0.1124924176E+00      0.1915760869E+00
          0                 3           2             4   13     1       0.1275399006E-03       4   13    1         0.7773950603E-02      0.1434674094E-01
          0                 4           1             3   13     1       0.1607814556E-04       3   13    1         0.9374407909E-03      0.1050246375E-02

    ------------------------------------------------
       NWT REQUIRED            4 OUTER ITERATIONS 
       AND A TOTAL OF          7 INNER ITERATIONS.
    ------------------------------------------------

 NO OUTPUT CONTROL FOR STRESS PERIOD   16   TIME STEP    1
 
 SOLVING FOR HEAD 
                                                   Max.-Head-Change                         Max.-Flux-Residual
  Residual-Control   Outer-Iter.   Inner-Iter.     Column Row Layer    Maximum-Head-Change  Column Row Layer    Maximum-Flux-Residual          L2-NORM 
          0                 1           2             2   13     1       0.1819001262E-01       2   13    1         0.1029627849E+01      0.1992014540E+01
          0                 2           2             3   13     1       0.2198379726E-02       3   13    1         0.1293014113E+00      0.2132176400E+00
          0                 3           2             3   13     1       0.2775883647E-03       3   13    1         0.1596823467E-01      0.1984878815E-01
          0                 4           1             3   13     1       0.3575525448E-04       3   13    1         0.2077731675E-02      0.2121440436E-02

    ------------------------------------------------
       NWT REQUIRED            4 OUTER ITERATIONS 
       AND A TOTAL OF          7 INNER ITERATIONS.
    ------------------------------------------------

 NO OUTPUT CONTROL FOR STRESS PERIOD   16   TIME STEP    2
 
 SOLVING FOR HEAD 
                                                   Max.-Head-Change                         Max.-Flux-Residual
  Residual-Control   Outer-Iter.   Inner-Iter.     Column Row Layer    Maximum-Head-Change  Column Row Layer    Maximum-Flux-Residual          L2-NORM 
          0                 1           2             2   13     1       0.1678967131E-01       2   13    1         0.9505199320E+00      0.1839096289E+01
          0                 2           2             3   13     1       0.1957176690E-02       3   13    1         0.1151726454E+00      0.1959082390E+00
          0                 3           2             3   13     1       0.2478575287E-03       3   13    1         0.1425464125E-01      0.1801606453E-01
          0                 4           1             3   13     1       0.3193043510E-04       3   13    1         0.1855639714E-02      0.1898709348E-02

    ------------------------------------------------
       NWT REQUIRED            4 OUTER ITERATIONS 
       AND A TOTAL OF          7 INNER ITERATIONS.
    ------------------------------------------------

 NO OUTPUT CONTROL FOR STRESS PERIOD   16   TIME STEP    3
 
 SOLVING FOR HEAD 
                                                   Max.-Head-Change                         Max.-Flux-Residual
  Residual-Control   Outer-Iter.   Inner-Iter.     Column Row Layer    Maximum-Head-Change  Column Row Layer    Maximum-Flux-Residual          L2-NORM 
          0                 1           2             2   13     1       0.1549189724E-01       2   13    1         0.8771692993E+00      0.1702881798E+01
          0                 2           2             3   13     1       0.1771681482E-02       3   13    1         0.1026376750E+00      0.1803807944E+00
          0                 3           2             3   13     1       0.2331865041E-03       3   13    1         0.1336391853E-01      0.1915337844E-01
          0                 4           1             3   13     1       0.3069837647E-04       3   13    1         0.1768387681E-02      0.2239994418E-02

    ------------------------------------------------
       NWT REQUIRED            4 OUTER ITERATIONS 
       AND A TOTAL OF          7 INNER ITERATIONS.
    ------------------------------------------------

 NO OUTPUT CONTROL FOR STRESS PERIOD   16   TIME STEP    4
 
 SOLVING FOR HEAD 
                                                   Max.-Head-Change                         Max.-Flux-Residual
  Residual-Control   Outer-Iter.   Inner-Iter.     Column Row Layer    Maximum-Head-Change  Column Row Layer    Maximum-Flux-Residual          L2-NORM 
          0                 1           2             2   13     1       0.1429589717E-01       2   13    1         0.8095269027E+00      0.1592291883E+01
          0                 2           2             4   13     1       0.1715355000E-02       4   13    1         0.9944578880E-01      0.1793310771E+00
          0                 3           2             4   13     1       0.2181465282E-03       4   13    1         0.1257982913E-01      0.1937811681E-01
          0                 4           1             3   13     1       0.2798602150E-04       3   13    1         0.1608382843E-02      0.2291436414E-02

    ------------------------------------------------
       NWT REQUIRED            4 OUTER ITERATIONS 
       AND A TOTAL OF          7 INNER ITERATIONS.
    ------------------------------------------------

 NO OUTPUT CONTROL FOR STRESS PERIOD   16   TIME STEP    5
 
 SOLVING FOR HEAD 
                                                   Max.-Head-Change                         Max.-Flux-Residual
  Residual-Control   Outer-Iter.   Inner-Iter.     Column Row Layer    Maximum-Head-Change  Column Row Layer    Maximum-Flux-Residual          L2-NORM 
          0                 1           2             2   13     1       0.1319051402E-01       2   13    1         0.7469872225E+00      0.1474417721E+01
          0                 2           2             4   13     1       0.1511467045E-02       4   13    1         0.8766699467E-01      0.1647392741E+00
          0                 3           2             4   13     1       0.1922813681E-03       4   13    1         0.1108271722E-01      0.1747210921E-01
          0                 4           1             3   13     1       0.2514938698E-04       3   13    1         0.1445721726E-02      0.2044031199E-02

    ------------------------------------------------
       NWT REQUIRED            4 OUTER ITERATIONS 
       AND A TOTAL OF          7 INNER ITERATIONS.
    ------------------------------------------------

 NO OUTPUT CONTROL FOR STRESS PERIOD   16   TIME STEP    6
 
 SOLVING FOR HEAD 
                                                   Max.-Head-Change                         Max.-Flux-Residual
  Residual-Control   Outer-Iter.   Inner-Iter.     Column Row Layer    Maximum-Head-Change  Column Row Layer    Maximum-Flux-Residual          L2-NORM 
          0                 1           2             2   13     1       0.1216724283E-01       2   13    1         0.6890763642E+00      0.1371200612E+01
          0                 2           2             4   13     1       0.1330386330E-02       4   13    1         0.7720553803E-01      0.1517991019E+00
          0                 3           2             4   13     1       0.1698483021E-03       4   13    1         0.9785216137E-02      0.1577350452E-01
          0                 4           1             3   13     1       0.2245593802E-04       3   13    1         0.1291092469E-02      0.1821642815E-02

    ------------------------------------------------
       NWT REQUIRED            4 OUTER ITERATIONS 
       AND A TOTAL OF          7 INNER ITERATIONS.
    ------------------------------------------------

 NO OUTPUT CONTROL FOR STRESS PERIOD   16   TIME STEP    7
 
 SOLVING FOR HEAD 
                                                   Max.-Head-Change                         Max.-Flux-Residual
  Residual-Control   Outer-Iter.   Inner-Iter.     Column Row Layer    Maximum-Head-Change  Column Row Layer    Maximum-Flux-Residual          L2-NORM 
          0                 1           2             2   13     1       0.1122058477E-01       2   13    1         0.6354869835E+00      0.1280789320E+01
          0                 2           2             4   13     1       0.1173171954E-02       4   13    1         0.6812206875E-01      0.1405658227E+00
          0                 3           2             3   13     1       0.1514297154E-03       3   13    1         0.8653556548E-02      0.1429402976E-01
          0                 4           1             3   13     1       0.2014611152E-04       3   13    1         0.1158580355E-02      0.1624781254E-02

    ------------------------------------------------
       NWT REQUIRED            4 OUTER ITERATIONS 
       AND A TOTAL OF          7 INNER ITERATIONS.
    ------------------------------------------------

 NO OUTPUT CONTROL FOR STRESS PERIOD   16   TIME STEP    8
 
 SOLVING FOR HEAD 
                                                   Max.-Head-Change                         Max.-Flux-Residual
  Residual-Control   Outer-Iter.   Inner-Iter.     Column Row Layer    Maximum-Head-Change  Column Row Layer    Maximum-Flux-Residual          L2-NORM 
          0                 1           2             2   13     1       0.1034531565E-01       2   13    1         0.5859269062E+00      0.1201545051E+01
          0                 2           2             4   13     1       0.1034023651E-02       4   13    1         0.6008159903E-01      0.1306747866E+00
          0                 3           2             3   13     1       0.1353187442E-03       3   13    1         0.7731873274E-02      0.1298491175E-01
          0                 4           1             3   13     1       0.1800552227E-04       3   13    1         0.1035619838E-02      0.1450697377E-02

    ------------------------------------------------
       NWT REQUIRED            4 OUTER ITERATIONS 
       AND A TOTAL OF          7 INNER ITERATIONS.
    ------------------------------------------------

 NO OUTPUT CONTROL FOR STRESS PERIOD   16   TIME STEP    9
 
 SOLVING FOR HEAD 
                                                   Max.-Head-Change                         Max.-Flux-Residual
  Residual-Control   Outer-Iter.   Inner-Iter.     Column Row Layer    Maximum-Head-Change  Column Row Layer    Maximum-Flux-Residual          L2-NORM 
          0                 1           2             2   13     1       0.9536589357E-02       2   13    1         0.5401246399E+00      0.1132060980E+01
          0                 2           2             4   13     1       0.9144353573E-03       4   13    1         0.5317249901E-01      0.1220682833E+00
          0                 3           2             3   13     1       0.1208259298E-03       3   13    1         0.6902658325E-02      0.1183149983E-01
          0                 4           1             3   13     1       0.1606409020E-04       3   13    1         0.9241298158E-03      0.1293170047E-02

    ------------------------------------------------
       NWT REQUIRED            4 OUTER ITERATIONS 
       AND A TOTAL OF          7 INNER ITERATIONS.
    ------------------------------------------------

 NO OUTPUT CONTROL FOR STRESS PERIOD   16   TIME STEP   10
 
 SOLVING FOR HEAD 
                                                   Max.-Head-Change                         Max.-Flux-Residual
  Residual-Control   Outer-Iter.   Inner-Iter.     Column Row Layer    Maximum-Head-Change  Column Row Layer    Maximum-Flux-Residual          L2-NORM 
          0                 1           2             2   13     1       0.8789696681E-02       2   13    1         0.4978159124E+00      0.1071064132E+01
          0                 2           2             3   13     1       0.8146498652E-03       2   13    1        -0.4788076775E-01      0.1145351231E+00
          0                 3           1             3   13     1       0.1084482987E-03       3   13    1         0.6194993207E-02      0.1083310249E-01
          0                 4           1             3   13     1       0.1445662990E-04       3   13    1         0.8318743276E-03      0.1158404838E-02

    ------------------------------------------------
       NWT REQUIRED            4 OUTER ITERATIONS 
       AND A TOTAL OF          6 INNER ITERATIONS.
    ------------------------------------------------

 NO OUTPUT CONTROL FOR STRESS PERIOD   16   TIME STEP   11
 
 SOLVING FOR HEAD 
                                                   Max.-Head-Change                         Max.-Flux-Residual
  Residual-Control   Outer-Iter.   Inner-Iter.     Column Row Layer    Maximum-Head-Change  Column Row Layer    Maximum-Flux-Residual          L2-NORM 
          0                 1           2             2   13     1       0.8100218577E-02       2   13    1         0.4587527337E+00      0.1017473044E+01
          0                 2           2             2   13     1      -0.7483279259E-03       2   13    1        -0.4416365240E-01      0.1079386016E+00
          0                 3           1             3   13     1       0.9699613284E-04       3   13    1         0.5539711204E-02      0.9956943984E-02

    ------------------------------------------------
       NWT REQUIRED            3 OUTER ITERATIONS 
       AND A TOTAL OF          5 INNER ITERATIONS.
    ------------------------------------------------

 NO OUTPUT CONTROL FOR STRESS PERIOD   16   TIME STEP   12
 
 SOLVING FOR HEAD 
                                                   Max.-Head-Change                         Max.-Flux-Residual
  Residual-Control   Outer-Iter.   Inner-Iter.     Column Row Layer    Maximum-Head-Change  Column Row Layer    Maximum-Flux-Residual          L2-NORM 
          0                 1           2             2   13     1       0.7463780572E-02       2   13    1         0.4226881284E+00      0.9703503955E+00
          0                 2           2             2   13     1      -0.6903260965E-03       2   13    1        -0.4072253067E-01      0.1022105350E+00
          0                 3           1             3   13     1       0.8679535531E-04       3   13    1         0.4956036161E-02      0.9192914638E-02

    ------------------------------------------------
       NWT REQUIRED            3 OUTER ITERATIONS 
       AND A TOTAL OF          5 INNER ITERATIONS.
    ------------------------------------------------

 NO OUTPUT CONTROL FOR STRESS PERIOD   16   TIME STEP   13
 
 SOLVING FOR HEAD 
                                                   Max.-Head-Change                         Max.-Flux-Residual
  Residual-Control   Outer-Iter.   Inner-Iter.     Column Row Layer    Maximum-Head-Change  Column Row Layer    Maximum-Flux-Residual          L2-NORM 
          0                 1           2             2   13     1       0.6876868305E-02       2   13    1         0.3894255343E+00      0.9288210575E+00
          0                 2           2             2   13     1      -0.6368021094E-03       2   13    1        -0.3754866023E-01      0.9716714547E-01
          0                 3           1             3   13     1       0.7761624226E-04       3   13    1         0.4430777805E-02      0.8523641161E-02

    ------------------------------------------------
       NWT REQUIRED            3 OUTER ITERATIONS 
       AND A TOTAL OF          5 INNER ITERATIONS.
    ------------------------------------------------

 NO OUTPUT CONTROL FOR STRESS PERIOD   16   TIME STEP   14
 
 SOLVING FOR HEAD 
                                                   Max.-Head-Change                         Max.-Flux-Residual
  Residual-Control   Outer-Iter.   Inner-Iter.     Column Row Layer    Maximum-Head-Change  Column Row Layer    Maximum-Flux-Residual          L2-NORM 
          0                 1           2             1   13     1       0.6339732176E-02       2   13    1         0.3587585903E+00      0.8921673401E+00
          0                 2           2             2    2     1      -0.6006767148E-03       2   13    1        -0.3461663925E-01      0.9275513536E-01
          0                 3           1             3   13     1       0.6947938931E-04       3   13    1         0.3965203159E-02      0.7943090742E-02

    ------------------------------------------------
       NWT REQUIRED            3 OUTER ITERATIONS 
       AND A TOTAL OF          5 INNER ITERATIONS.
    ------------------------------------------------

 NO OUTPUT CONTROL FOR STRESS PERIOD   16   TIME STEP   15
 
 SOLVING FOR HEAD 
                                                   Max.-Head-Change                         Max.-Flux-Residual
  Residual-Control   Outer-Iter.   Inner-Iter.     Column Row Layer    Maximum-Head-Change  Column Row Layer    Maximum-Flux-Residual          L2-NORM 
          0                 1           2             2    2     1       0.6136940903E-02       2   13    1         0.3304936209E+00      0.8597466836E+00
          0                 2           2             2    2     1      -0.5969586946E-03       1   13    1        -0.3204249265E-01      0.8891172341E-01
          0                 3           1             3   13     1       0.6259048305E-04       3   13    1         0.3571317287E-02      0.7450323729E-02

    ------------------------------------------------
       NWT REQUIRED            3 OUTER ITERATIONS 
       AND A TOTAL OF          5 INNER ITERATIONS.
    ------------------------------------------------

 NO OUTPUT CONTROL FOR STRESS PERIOD   16   TIME STEP   16
 
 SOLVING FOR HEAD 
                                                   Max.-Head-Change                         Max.-Flux-Residual
  Residual-Control   Outer-Iter.   Inner-Iter.     Column Row Layer    Maximum-Head-Change  Column Row Layer    Maximum-Flux-Residual          L2-NORM 
          0                 1           2             2    2     1       0.6099259552E-02       2    2    1         0.3184055100E+00      0.8310085651E+00
          0                 2           2             2    2     1      -0.5932932979E-03       2    2    1        -0.3184066110E-01      0.8552434399E-01
          0                 3           1             3   13     1       0.5616910574E-04       3   13    1         0.3203923053E-02      0.7015821077E-02

    ------------------------------------------------
       NWT REQUIRED            3 OUTER ITERATIONS 
       AND A TOTAL OF          5 INNER ITERATIONS.
    ------------------------------------------------

 NO OUTPUT CONTROL FOR STRESS PERIOD   16   TIME STEP   17
 
 SOLVING FOR HEAD 
                                                   Max.-Head-Change                         Max.-Flux-Residual
  Residual-Control   Outer-Iter.   Inner-Iter.     Column Row Layer    Maximum-Head-Change  Column Row Layer    Maximum-Flux-Residual          L2-NORM 
          0                 1           2             2    2     1       0.6062023058E-02       2    2    1         0.3164472082E+00      0.8054835023E+00
          0                 2           2             2    2     1      -0.5896711739E-03       2    2    1        -0.3164482905E-01      0.8254119121E-01
          0                 3           1             3   13     1       0.5044026752E-04       3   13    1         0.2876125946E-02      0.6640985993E-02

    ------------------------------------------------
       NWT REQUIRED            3 OUTER ITERATIONS 
       AND A TOTAL OF          5 INNER ITERATIONS.
    ------------------------------------------------

 NO OUTPUT CONTROL FOR STRESS PERIOD   16   TIME STEP   18
 
 SOLVING FOR HEAD 
                                                   Max.-Head-Change                         Max.-Flux-Residual
  Residual-Control   Outer-Iter.   Inner-Iter.     Column Row Layer    Maximum-Head-Change  Column Row Layer    Maximum-Flux-Residual          L2-NORM 
          0                 1           2             2    2     1       0.6025398635E-02       2    2    1         0.3145211090E+00      0.7827546689E+00
          0                 2           2             2    2     1      -0.5861085886E-03       2    2    1        -0.3145221730E-01      0.7992980593E-01
          0                 3           1             3   13     1       0.4526157081E-04       3   13    1         0.2579707301E-02      0.6316542835E-02

    ------------------------------------------------
       NWT REQUIRED            3 OUTER ITERATIONS 
       AND A TOTAL OF          5 INNER ITERATIONS.
    ------------------------------------------------

 NO OUTPUT CONTROL FOR STRESS PERIOD   16   TIME STEP   19
 
 SOLVING FOR HEAD 
                                                   Max.-Head-Change                         Max.-Flux-Residual
  Residual-Control   Outer-Iter.   Inner-Iter.     Column Row Layer    Maximum-Head-Change  Column Row Layer    Maximum-Flux-Residual          L2-NORM 
          0                 1           2             2    2     1       0.5989115301E-02       2    2    1         0.3126130383E+00      0.7624595847E+00
          0                 2           2             2    2     1      -0.5825791829E-03       2    2    1        -0.3126140845E-01      0.7760808724E-01
          0                 3           1             3   13     1       0.4070256884E-04       3   13    1         0.2318878405E-02      0.6035068241E-02

    ------------------------------------------------
       NWT REQUIRED            3 OUTER ITERATIONS 
       AND A TOTAL OF          5 INNER ITERATIONS.
    ------------------------------------------------

 NO OUTPUT CONTROL FOR STRESS PERIOD   16   TIME STEP   20
 
 SOLVING FOR HEAD 
                                                   Max.-Head-Change                         Max.-Flux-Residual
  Residual-Control   Outer-Iter.   Inner-Iter.     Column Row Layer    Maximum-Head-Change  Column Row Layer    Maximum-Flux-Residual          L2-NORM 
          0                 1           2             2    2     1       0.5953427943E-02       2    2    1         0.3107363596E+00      0.7442931724E+00
          0                 2           2             2    2     1      -0.5791077500E-03       2    2    1        -0.3107373887E-01      0.7555261048E-01
          0                 3           1             2    2     1       0.3943507541E-04       2    2    1         0.2175161684E-02      0.5790257179E-02

    ------------------------------------------------
       NWT REQUIRED            3 OUTER ITERATIONS 
       AND A TOTAL OF          5 INNER ITERATIONS.
    ------------------------------------------------

 NO OUTPUT CONTROL FOR STRESS PERIOD   16   TIME STEP   21
 
 SOLVING FOR HEAD 
                                                   Max.-Head-Change                         Max.-Flux-Residual
  Residual-Control   Outer-Iter.   Inner-Iter.     Column Row Layer    Maximum-Head-Change  Column Row Layer    Maximum-Flux-Residual          L2-NORM 
          0                 1           2             2    2     1       0.5918153228E-02       2    2    1         0.3088814432E+00      0.7279891427E+00
          0                 2           2             2    2     1      -0.5756764560E-03       2    2    1        -0.3088824551E-01      0.7372798210E-01
          0                 3           1             2    2     1       0.3920141760E-04       2    2    1         0.2162177154E-02      0.5580240676E-02

    ------------------------------------------------
       NWT REQUIRED            3 OUTER ITERATIONS 
       AND A TOTAL OF          5 INNER ITERATIONS.
    ------------------------------------------------

 NO OUTPUT CONTROL FOR STRESS PERIOD   16   TIME STEP   22
 
 SOLVING FOR HEAD 
                                                   Max.-Head-Change                         Max.-Flux-Residual
  Residual-Control   Outer-Iter.   Inner-Iter.     Column Row Layer    Maximum-Head-Change  Column Row Layer    Maximum-Flux-Residual          L2-NORM 
          0                 1           2             2    2     1       0.5883459372E-02       2    2    1         0.3070570606E+00      0.7133148300E+00
          0                 2           2             2    2     1      -0.5723016649E-03       2    2    1        -0.3070580558E-01      0.7210004989E-01
          0                 3           1             2    2     1       0.3897160761E-04       2    2    1         0.2149406395E-02      0.5395251994E-02

    ------------------------------------------------
       NWT REQUIRED            3 OUTER ITERATIONS 
       AND A TOTAL OF          5 INNER ITERATIONS.
    ------------------------------------------------

 NO OUTPUT CONTROL FOR STRESS PERIOD   16   TIME STEP   23
 
 SOLVING FOR HEAD 
                                                   Max.-Head-Change                         Max.-Flux-Residual
  Residual-Control   Outer-Iter.   Inner-Iter.     Column Row Layer    Maximum-Head-Change  Column Row Layer    Maximum-Flux-Residual          L2-NORM 
          0                 1           2             2    2     1       0.5849074720E-02       2    2    1         0.3052490860E+00      0.7000599343E+00
          0                 2           2             2    2     1      -0.5689569510E-03       2    2    1        -0.3052500648E-01      0.7064425835E-01
          0                 3           1             2    2     1       0.3874384462E-04       2    2    1         0.2136750456E-02      0.5236503479E-02

    ------------------------------------------------
       NWT REQUIRED            3 OUTER ITERATIONS 
       AND A TOTAL OF          5 INNER ITERATIONS.
    ------------------------------------------------

 NO OUTPUT CONTROL FOR STRESS PERIOD   16   TIME STEP   24
 
 SOLVING FOR HEAD 
                                                   Max.-Head-Change                         Max.-Flux-Residual
  Residual-Control   Outer-Iter.   Inner-Iter.     Column Row Layer    Maximum-Head-Change  Column Row Layer    Maximum-Flux-Residual          L2-NORM 
          0                 1           2             2    2     1       0.5815255909E-02       2    2    1         0.3034708524E+00      0.6880635217E+00
          0                 2           2             2    2     1      -0.5656672787E-03       2    2    1        -0.3034718153E-01      0.6933820918E-01
          0                 3           1             2    2     1       0.3851983053E-04       2    2    1         0.2124302720E-02      0.5097834185E-02

    ------------------------------------------------
       NWT REQUIRED            3 OUTER ITERATIONS 
       AND A TOTAL OF          5 INNER ITERATIONS.
    ------------------------------------------------

 NO OUTPUT CONTROL FOR STRESS PERIOD   16   TIME STEP   25
 
 SOLVING FOR HEAD 
                                                   Max.-Head-Change                         Max.-Flux-Residual
  Residual-Control   Outer-Iter.   Inner-Iter.     Column Row Layer    Maximum-Head-Change  Column Row Layer    Maximum-Flux-Residual          L2-NORM 
          0                 1           2             2    2     1       0.5781819705E-02       2    2    1         0.3017128171E+00      0.6771678758E+00
          0                 2           2             2    2     1      -0.5624148244E-03       2    2    1        -0.3017137646E-01      0.6816194963E-01
          0                 3           1             2    2     1       0.3829835026E-04       2    2    1         0.2111996358E-02      0.4976368662E-02

    ------------------------------------------------
       NWT REQUIRED            3 OUTER ITERATIONS 
       AND A TOTAL OF          5 INNER ITERATIONS.
    ------------------------------------------------

 NO OUTPUT CONTROL FOR STRESS PERIOD   16   TIME STEP   26
 
 SOLVING FOR HEAD 
                                                   Max.-Head-Change                         Max.-Flux-Residual
  Residual-Control   Outer-Iter.   Inner-Iter.     Column Row Layer    Maximum-Head-Change  Column Row Layer    Maximum-Flux-Residual          L2-NORM 
          0                 1           2             2    2     1       0.5748847057E-02       2    2    1         0.2999791895E+00      0.6672392745E+00
          0                 2           2             2    2     1      -0.5592074620E-03       2    2    1        -0.2999801217E-01      0.6709945133E-01
          0                 3           1             2    2     1       0.3807994154E-04       2    2    1         0.2099860881E-02      0.4868963068E-02

    ------------------------------------------------
       NWT REQUIRED            3 OUTER ITERATIONS 
       AND A TOTAL OF          5 INNER ITERATIONS.
    ------------------------------------------------

 NO OUTPUT CONTROL FOR STRESS PERIOD   16   TIME STEP   27
 
 SOLVING FOR HEAD 
                                                   Max.-Head-Change                         Max.-Flux-Residual
  Residual-Control   Outer-Iter.   Inner-Iter.     Column Row Layer    Maximum-Head-Change  Column Row Layer    Maximum-Flux-Residual          L2-NORM 
          0                 1           2             2    2     1       0.5716330568E-02       2    2    1         0.2982695968E+00      0.6581644555E+00
          0                 2           2             2    2     1      -0.5560444714E-03       2    2    1        -0.2982705141E-01      0.6613212488E-01
          0                 3           1             2    2     1       0.3786455371E-04       2    2    1         0.2087893632E-02      0.4774550523E-02

    ------------------------------------------------
       NWT REQUIRED            3 OUTER ITERATIONS 
       AND A TOTAL OF          5 INNER ITERATIONS.
    ------------------------------------------------

 NO OUTPUT CONTROL FOR STRESS PERIOD   16   TIME STEP   28
 
 SOLVING FOR HEAD 
                                                   Max.-Head-Change                         Max.-Flux-Residual
  Residual-Control   Outer-Iter.   Inner-Iter.     Column Row Layer    Maximum-Head-Change  Column Row Layer    Maximum-Flux-Residual          L2-NORM 
          0                 1           2             2    2     1       0.5684262943E-02       2    2    1         0.2965836554E+00      0.6498457291E+00
          0                 2           2             2    2     1      -0.5529251422E-03       2    2    1        -0.2965845579E-01      0.6525339192E-01
          0                 3           1             2    2     1       0.3765213898E-04       2    2    1         0.2076091951E-02      0.4690825424E-02

    ------------------------------------------------
       NWT REQUIRED            3 OUTER ITERATIONS 
       AND A TOTAL OF          5 INNER ITERATIONS.
    ------------------------------------------------

 NO OUTPUT CONTROL FOR STRESS PERIOD   16   TIME STEP   29
 
 SOLVING FOR HEAD 
                                                   Max.-Head-Change                         Max.-Flux-Residual
  Residual-Control   Outer-Iter.   Inner-Iter.     Column Row Layer    Maximum-Head-Change  Column Row Layer    Maximum-Flux-Residual          L2-NORM 
          0                 1           2             2    2     1       0.4947925149E-02       2    2    1         0.2580795376E+00      0.5695455703E+00
          0                 2           2             2    2     1      -0.4812991994E-03       2    2    1        -0.2580802047E-01      0.5790389492E-01
          0                 3           1             2    2     1       0.3277468152E-04       2    2    1         0.1806561593E-02      0.4493800874E-02

    ------------------------------------------------
       NWT REQUIRED            3 OUTER ITERATIONS 
       AND A TOTAL OF          5 INNER ITERATIONS.
    ------------------------------------------------

 NO OUTPUT CONTROL FOR STRESS PERIOD   16   TIME STEP   30



 STREAM LISTING     PERIOD     16   STEP       30

 LAYER ROW COL. STREAM  RCH.  FLOW INTO     FLOW TO   FLOW OUT OF   OVRLND.     DIRECT     STREAM       STREAM     STREAM     STREAM   STREAMBED  STREAMBED
                SEG.NO.  NO.  STRM. RCH.    AQUIFER    STRM. RCH.    RUNOFF     PRECIP       ET          HEAD       DEPTH      WIDTH   CONDCTNC.   GRADIENT

   1    1    1     1     1    6.6341E+01  3.9373E-01   6.5947E+01  0.000E+00  0.000E+00  0.000E+00  1.09465E+03  1.601E+00  1.902E+01  8.558E-02  1.534E+00
   1    2    2     1     2    6.5947E+01  6.0983E-01   6.5338E+01  0.000E+00  0.000E+00  0.000E+00  1.08965E+03  1.595E+00  1.896E+01  1.327E-01  1.532E+00
   1    3    3     1     3    6.5338E+01  5.2015E-01   6.4817E+01  0.000E+00  0.000E+00  0.000E+00  1.08401E+03  1.588E+00  1.889E+01  1.134E-01  1.529E+00
   1    3    4     1     4    6.4817E+01  4.7905E-01   6.4338E+01  0.000E+00  0.000E+00  0.000E+00  1.07899E+03  1.582E+00  1.884E+01  1.045E-01  1.527E+00
   1    4    5     2     1    6.2338E+01  3.9665E-01   6.1942E+01  0.000E+00  0.000E+00  0.000E+00  1.07402E+03  2.085E+00  1.200E+01  7.800E-02  1.695E+00
   1    5    6     2     2    6.1942E+01  3.0469E-01   6.1637E+01  0.000E+00  0.000E+00  0.000E+00  1.06859E+03  2.078E+00  1.200E+01  6.000E-02  1.693E+00
   1    6    6     2     3    6.1637E+01  3.0432E-01   6.1333E+01  0.000E+00  0.000E+00  0.000E+00  1.06386E+03  2.072E+00  1.200E+01  6.000E-02  1.691E+00
   1    7    6     2     4    6.1333E+01  3.0396E-01   6.1029E+01  0.000E+00  0.000E+00  0.000E+00  1.05914E+03  2.066E+00  1.200E+01  6.000E-02  1.689E+00
   1    8    6     2     5    6.1029E+01  3.0359E-01   6.0725E+01  0.000E+00  0.000E+00  0.000E+00  1.05442E+03  2.060E+00  1.200E+01  6.000E-02  1.687E+00
   1    3    5     3     1    2.0000E+00  2.8252E-01   1.7175E+00  0.000E+00  0.000E+00  0.000E+00  1.07555E+03  1.909E+00  9.636E+00  7.227E-02  1.955E+00
   1    3    6     3     2    1.7175E+00  2.4905E-01   1.4684E+00  0.000E+00  0.000E+00  0.000E+00  1.07264E+03  1.727E+00  8.909E+00  6.682E-02  1.864E+00
   1    3    7     3     3    1.4684E+00  1.9718E-01   1.2712E+00  0.000E+00  0.000E+00  0.000E+00  1.06987E+03  1.555E+00  8.218E+00  5.547E-02  1.777E+00
   1    4    8     3     4    1.2712E+00  2.2567E-01   1.0456E+00  0.000E+00  0.000E+00  0.000E+00  1.06682E+03  1.364E+00  7.455E+00  6.709E-02  1.682E+00
   1    5    8     3     5    1.0456E+00  1.5790E-01   8.8768E-01  0.000E+00  0.000E+00  0.000E+00  1.06362E+03  1.164E+00  6.655E+00  4.991E-02  1.582E+00
   1    6    8     3     6    8.8768E-01  5.5980E-02   8.3170E-01  0.000E+00  0.000E+00  0.000E+00  1.06158E+03  1.036E+00  6.145E+00  1.844E-02  1.518E+00
   1    5   10     4     1    1.0000E+01  9.0919E-02   9.9091E+00  0.000E+00  0.000E+00  0.000E+00  1.07836E+03  6.368E-01  1.000E+01  2.500E-02  1.212E+00
   1    5    9     4     2    9.9091E+00  1.8158E-01   9.7275E+00  0.000E+00  0.000E+00  0.000E+00  1.07154E+03  6.315E-01  1.000E+01  5.000E-02  1.211E+00
   1    6    8     4     3    9.7275E+00  1.2689E-01   9.6006E+00  0.000E+00  0.000E+00  0.000E+00  1.06381E+03  6.256E-01  1.000E+01  3.500E-02  1.209E+00
   1    6    8     5     1    1.0432E+01  2.2686E-01   1.0205E+01  0.000E+00  0.000E+00  0.000E+00  1.05868E+03  6.790E-01  1.542E+01  6.166E-02  1.226E+00
   1    7    7     5     2    1.0205E+01  2.7894E-01   9.9265E+00  0.000E+00  0.000E+00  0.000E+00  1.05417E+03  6.732E-01  1.519E+01  7.594E-02  1.224E+00
   1    8    7     5     3    9.9265E+00  1.9221E-01   9.7343E+00  0.000E+00  0.000E+00  0.000E+00  1.04992E+03  6.676E-01  1.497E+01  5.241E-02  1.223E+00
   1    8    6     5     4    9.7343E+00  1.3577E-01   9.5985E+00  0.000E+00  0.000E+00  0.000E+00  1.04691E+03  6.637E-01  1.482E+01  3.706E-02  1.221E+00
   1    9    6     6     1    7.0324E+01  3.1608E-01   7.0008E+01  0.000E+00  0.000E+00  0.000E+00  1.04500E+03  2.268E+00  1.200E+01  6.000E-02  1.756E+00
   1   10    7     6     2    7.0008E+01  3.1571E-01   6.9692E+01  0.000E+00  0.000E+00  0.000E+00  1.04044E+03  2.262E+00  1.200E+01  6.000E-02  1.754E+00
   1   11    7     6     3    6.9692E+01  3.1534E-01   6.9377E+01  0.000E+00  0.000E+00  0.000E+00  1.03589E+03  2.256E+00  1.200E+01  6.000E-02  1.752E+00
   1   12    7     6     4    6.9377E+01  3.1498E-01   6.9062E+01  0.000E+00  0.000E+00  0.000E+00  1.03134E+03  2.250E+00  1.200E+01  6.000E-02  1.750E+00
   1   13    7     6     5    6.9062E+01  2.4262E-02   6.9037E+01  0.000E+00  0.000E+00  0.000E+00  1.02816E+03  2.246E+00  1.200E+01  2.400E-02  3.370E-01
   1   14    9     7     1    1.5000E+02  1.3361E+00   1.4866E+02  0.000E+00  0.000E+00  0.000E+00  1.03987E+03  2.288E+00  5.529E+01  5.593E-01  7.963E-01
   1   13    8     7     2    1.4866E+02  1.8220E+00   1.4684E+02  0.000E+00  0.000E+00  0.000E+00  1.03478E+03  2.279E+00  5.526E+01  6.148E-01  9.879E-01
   1   13    7     7     3    1.4684E+02  1.4216E+00   1.4542E+02  0.000E+00  0.000E+00  0.000E+00  1.02969E+03  2.271E+00  5.522E+01  5.585E-01  8.485E-01
   1   13    6     8     1    2.1446E+02  1.0474E+00   2.1341E+02  0.000E+00  0.000E+00  0.000E+00  1.02509E+03  3.218E+00  4.666E+01  4.755E-01  7.342E-01
   1   13    5     8     2    2.1341E+02  2.2761E-01   2.1318E+02  0.000E+00  0.000E+00  0.000E+00  1.01884E+03  3.214E+00  4.661E+01  4.750E-01  1.597E-01
   1   13    4     8     3    2.1318E+02 -2.5158E+00   2.1570E+02  0.000E+00  0.000E+00  0.000E+00  1.01260E+03  3.221E+00  4.670E+01  4.759E+00 -1.762E-01
   1   13    3     8     4    2.1570E+02 -3.7346E+00   2.1943E+02  0.000E+00  0.000E+00  0.000E+00  1.00636E+03  3.238E+00  4.696E+01  4.785E+00 -2.602E-01
   1   13    2     8     5    2.1943E+02 -2.5720E+00   2.2201E+02  0.000E+00  0.000E+00  0.000E+00  1.00013E+03  3.256E+00  4.721E+01  4.811E+00 -1.782E-01
   1   13    1     8     6    2.2201E+02 -1.9020E+00   2.2391E+02  0.000E+00  0.000E+00  0.000E+00  9.95143E+02  3.268E+00  4.739E+01  2.897E+00 -2.188E-01
   1    8    6     9     1    0.0000E+00  0.0000E+00   0.0000E+00  0.000E+00  0.000E+00  0.000E+00  1.07875E+03  0.000E+00  4.000E+00  0.000E+00  1.000E+00
   1    8    5     9     2    0.0000E+00  0.0000E+00   0.0000E+00  0.000E+00  0.000E+00  0.000E+00  1.07825E+03  0.000E+00  4.000E+00  0.000E+00  1.000E+00





UNSATURATED ZONE PACKAGE VOLUMETRIC BUDGET FOR  TIME STEP    30 STRESS PERIOD   16
  ------------------------------------------------------------------------------



     CUMULATIVE VOLUMES      L**3       RATES FOR THIS TIME STEP      L**3/T
     ------------------                 ------------------------

           IN:                                      IN:
           ---                                      ---
        INFILTRATION =   573652356.4871          INFILTRATION =           4.4075

          OUT:                                     OUT:
          ----                                     ----
              UZF ET =   503285377.0028                UZF ET =           0.7250
        UZF RECHARGE =      654716.9165          UZF RECHARGE =           0.0336

            IN - OUT =    69712262.5677              IN - OUT =           3.6489

          STORAGE:                                 STORAGE:
          --------                                 --------
      STORAGE CHANGE =    69712857.0066        STORAGE CHANGE =           3.6489

 PERCENT DISCREPANCY IS DIFFERENCE BETWEEN IN-OUT MINUS CHANGE IN STORAGE
 DIVIDED BY THE AVERAGE OF IN AND OUT TIMES 100

 PERCENT DISCREPANCY =          -0.00     PERCENT DISCREPANCY =           0.00






1
  VOLUMETRIC BUDGET FOR AGRICULTURAL FIELDS AT TIME STEP   30, STRESS PERIOD  16
  ------------------------------------------------------------------------------

     CUMULATIVE VOLUMES      L**3       RATES FOR THIS TIME STEP      L**3/T
     ------------------                 ------------------------

           IN:                                      IN:
           ---                                      ---
               AG WELLS  =    44249552.0000                 AG WELLS  =           0.0000
      DIVERSION SEGMENTS =   355446592.0000        DIVERSION SEGMENTS =           0.0000
           GW IRRIGATION =           0.0000             GW IRRIGATION =           0.0000
           SW IRRIGATION =           0.0000             SW IRRIGATION =           0.0000
        SYSTEM LOSSES GW =           0.0000          SYSTEM LOSSES GW =           0.0000
        SYSTEM LOSSES SW =           0.0000          SYSTEM LOSSES SW =           0.0000

                TOTAL IN =   399696128.0000                  TOTAL IN =           0.0000

          OUT:                                     OUT:
          ----                                     ----
               AG WELLS  =           0.0000                 AG WELLS  =           0.0000
      DIVERSION SEGMENTS =           0.0000        DIVERSION SEGMENTS =           0.0000
           GW IRRIGATION =    44249552.0000             GW IRRIGATION =           0.0000
           SW IRRIGATION =   355453760.0000             SW IRRIGATION =           0.0000
        SYSTEM LOSSES GW =           0.0000          SYSTEM LOSSES GW =           0.0000
        SYSTEM LOSSES SW =           0.0000          SYSTEM LOSSES SW =           0.0000

               TOTAL OUT =   399703296.0000                 TOTAL OUT =           0.0000

                IN - OUT =       -7168.0000                  IN - OUT =           0.0000

     PERCENT DISCREPANCY =          -0.00         PERCENT DISCREPANCY =           0.00



1
  VOLUMETRIC BUDGET FOR ENTIRE MODEL AT END OF TIME STEP   30, STRESS PERIOD  16
  ------------------------------------------------------------------------------

     CUMULATIVE VOLUMES      L**3       RATES FOR THIS TIME STEP      L**3/T
     ------------------                 ------------------------

           IN:                                      IN:
           ---                                      ---
             STORAGE     =    86475776.0000               STORAGE     =           0.6380
       CONSTANT HEAD     =           0.0000         CONSTANT HEAD     =           0.0000
     HEAD DEP BOUNDS     =    11297328.0000       HEAD DEP BOUNDS     =           0.2858
      STREAM LEAKAGE     =   472630400.0000        STREAM LEAKAGE     =          13.1584
        UZF RECHARGE     =      654716.8125          UZF RECHARGE     =       3.3572E-02
               GW ET     =           0.0000                 GW ET     =           0.0000
     SURFACE LEAKAGE     =           0.0000       SURFACE LEAKAGE     =           0.0000
           AG WELLS      =           0.0000             AG WELLS      =           0.0000

                TOTAL IN =   571058240.0000                  TOTAL IN =          14.1157

          OUT:                                     OUT:
          ----                                     ----
             STORAGE     =    88532856.0000               STORAGE     =           3.0961
       CONSTANT HEAD     =           0.0000         CONSTANT HEAD     =           0.0000
     HEAD DEP BOUNDS     =    11495620.0000       HEAD DEP BOUNDS     =           0.2964
      STREAM LEAKAGE     =   425234304.0000        STREAM LEAKAGE     =          10.7244
        UZF RECHARGE     =           0.0000          UZF RECHARGE     =           0.0000
               GW ET     =     1532013.0000                 GW ET     =       2.3275E-12
     SURFACE LEAKAGE     =           0.0000       SURFACE LEAKAGE     =           0.0000
           AG WELLS      =    44249552.0000             AG WELLS      =           0.0000

               TOTAL OUT =   571044352.0000                 TOTAL OUT =          14.1169

                IN - OUT =       13888.0000                  IN - OUT =      -1.1778E-03

     PERCENT DISCREPANCY =           0.00         PERCENT DISCREPANCY =          -0.01






         TIME SUMMARY AT END OF TIME STEP   30 IN STRESS PERIOD   16
                    SECONDS     MINUTES      HOURS       DAYS        YEARS
                    -----------------------------------------------------------
   TIME STEP LENGTH  87667.      1461.1      24.352      1.0147     2.77799E-03
 STRESS PERIOD TIME 2.63000E+06  43833.      730.56      30.440     8.33397E-02
         TOTAL TIME 3.95364E+07 6.58940E+05  10982.      457.60      1.2528    
1
1
                            STRESS PERIOD NO.   17, LENGTH =   2630000.    
                            -----------------------------------------------

                              NUMBER OF TIME STEPS =    30

                               MULTIPLIER FOR DELT =     1.000

                            INITIAL TIME STEP SIZE =   87666.66    

 REUSING NON-PARAMETER GHB CELLS FROM LAST STRESS PERIOD

      2 GHB CELLS

 REUSING STREAM SEGMENT DATA FROM LAST STRESS PERIOD



            AREAL INFILTRATION RATE
 READING ON UNIT   19 WITH FORMAT: (10F4.0)            

            1           2           3           4           5           6           7           8           9          10
 ........................................................................................................................
   1   1.2000E-09   0.000       0.000       0.000       0.000       0.000       0.000       0.000       0.000       0.000    
   2   2.1000E-09  2.0000E-09  8.0000E-10  8.5000E-09   0.000       0.000       0.000       0.000       0.000       0.000    
   3   5.0000E-10  1.1000E-09  8.8000E-09  5.5000E-09   0.000       0.000       0.000       0.000       0.000       0.000    
   4   8.5000E-09  1.1000E-09  1.1000E-09  1.1000E-09  2.0000E-09   0.000       0.000       0.000       0.000       0.000    
   5   8.5000E-09  1.1000E-09  1.1000E-09  1.1000E-09  1.1000E-09   0.000       0.000       0.000       0.000       0.000    
   6   8.5000E-09  5.2000E-09  2.1000E-09  1.1000E-09  1.5000E-09   0.000       0.000       0.000       0.000       0.000    
   7   8.5000E-09  5.2000E-09  2.1000E-09  1.2000E-09  2.0000E-09   0.000       0.000       0.000       0.000       0.000    
   8   5.0000E-10  5.2000E-09  2.1000E-09  1.2000E-09  5.0000E-09   0.000       0.000       0.000       0.000       0.000    
   9   5.0000E-10  5.2000E-09  2.1000E-09  1.2000E-09  5.0000E-09   0.000       0.000       0.000       0.000       0.000    
  10   5.0000E-10  5.2000E-09  2.1000E-09  1.2000E-09  5.8000E-09   0.000       0.000       0.000       0.000       0.000    
  11   1.0000E-10  1.1000E-09  1.1000E-09  1.2000E-09  5.0000E-09   0.000       0.000       0.000       0.000       0.000    
  12   1.1000E-09  1.1000E-09  1.1000E-09  1.1000E-09  2.0000E-09   0.000       0.000       0.000       0.000       0.000    
  13   1.1000E-09  2.2000E-09  2.2000E-09  2.1000E-09  1.0000E-09   0.000       0.000       0.000       0.000       0.000    
  14   2.0000E-10  5.5000E-09  5.5000E-09  5.2000E-09  1.0000E-09   0.000       0.000       0.000       0.000       0.000    
  15    0.000      8.8000E-09  8.8000E-09   0.000       0.000       0.000       0.000       0.000       0.000       0.000    

                  ET RATE =  2.500000E-08

 USING ET EXTINCTION DEPTH FROM PREVIOUS STRESS PERIOD. CURRENT PERIOD IS:      17

 USING EXTINCTION WATER CONTENT FROM PREVIOUS STRESS PERIOD. CURRENT PERIOD IS:      17

 USING AIR ENTRY PRESSURE FROM PREVIOUS STRESS PERIOD. CURRENT PERIOD IS:      17

 USING ROOT PRESSURE HEAD FROM PREVIOUS STRESS PERIOD. CURRENT PERIOD IS:      17

 USING ROOT ACTIVITY FROM PREVIOUS STRESS PERIOD. CURRENT PERIOD IS:      17

 PROCESSING AG STRESS PERIOD DATA

 READING AG STRESS PERIOD DATA

 READING IRRIGATION SEGMENT

 READING IRRIGATION WELL

 READING SUPPLEMENTAL WELL

 END PROCESSING AG STRESS PERIOD DATA OPTIONS
 
 SOLVING FOR HEAD 
                                                   Max.-Head-Change                         Max.-Flux-Residual
  Residual-Control   Outer-Iter.   Inner-Iter.     Column Row Layer    Maximum-Head-Change  Column Row Layer    Maximum-Flux-Residual          L2-NORM 
          0                 1           2             4   13     1      -0.5246571224E-02       4   13    1        -0.3045743027E+00      0.6573196155E+00
          0                 2           2             2   13     1       0.3876521756E-03       2   13    1         0.2291219164E-01      0.5486735173E-01
          0                 3           1             3   13     1       0.2781653140E-04       3   13    1         0.1651749254E-02      0.4085837008E-02

    ------------------------------------------------
       NWT REQUIRED            3 OUTER ITERATIONS 
       AND A TOTAL OF          5 INNER ITERATIONS.
    ------------------------------------------------

 NO OUTPUT CONTROL FOR STRESS PERIOD   17   TIME STEP    1
 
 SOLVING FOR HEAD 
                                                   Max.-Head-Change                         Max.-Flux-Residual
  Residual-Control   Outer-Iter.   Inner-Iter.     Column Row Layer    Maximum-Head-Change  Column Row Layer    Maximum-Flux-Residual          L2-NORM 
          0                 1           2             4   13     1      -0.5329154214E-02       4   13    1        -0.3090773269E+00      0.6568361938E+00
          0                 2           2             4   13     1       0.5103540377E-03       4   13    1         0.3043667169E-01      0.6457126471E-01
          0                 3           1             4   13     1      -0.3889167820E-04       4   13    1        -0.2382815769E-02      0.4763167065E-02

    ------------------------------------------------
       NWT REQUIRED            3 OUTER ITERATIONS 
       AND A TOTAL OF          5 INNER ITERATIONS.
    ------------------------------------------------

 NO OUTPUT CONTROL FOR STRESS PERIOD   17   TIME STEP    2
 
 SOLVING FOR HEAD 
                                                   Max.-Head-Change                         Max.-Flux-Residual
  Residual-Control   Outer-Iter.   Inner-Iter.     Column Row Layer    Maximum-Head-Change  Column Row Layer    Maximum-Flux-Residual          L2-NORM 
          0                 1           2             4   13     1      -0.4779700304E-02       4   13    1        -0.2772225348E+00      0.6239607497E+00
          0                 2           2             2    2     1      -0.3742570504E-03       2    2    1        -0.2005346919E-01      0.5595733569E-01
          0                 3           2             4   13     1      -0.1389046112E-03       4   13    1        -0.8009951165E-02      0.1362407828E-01
          0                 4           1             2   13     1      -0.1581399316E-04       2   13    1        -0.8937037410E-03      0.1601631628E-02

    ------------------------------------------------
       NWT REQUIRED            4 OUTER ITERATIONS 
       AND A TOTAL OF          7 INNER ITERATIONS.
    ------------------------------------------------

 NO OUTPUT CONTROL FOR STRESS PERIOD   17   TIME STEP    3
 
 SOLVING FOR HEAD 
                                                   Max.-Head-Change                         Max.-Flux-Residual
  Residual-Control   Outer-Iter.   Inner-Iter.     Column Row Layer    Maximum-Head-Change  Column Row Layer    Maximum-Flux-Residual          L2-NORM 
          0                 1           2             4   13     1      -0.4203020680E-02       4   13    1        -0.2437974906E+00      0.5904900806E+00
          0                 2           2             2    2     1      -0.3725599960E-03       2    2    1        -0.1996183325E-01      0.5739285597E-01
          0                 3           2             4   13     1      -0.3091691727E-03       4   13    1        -0.1781008163E-01      0.3063047380E-01
          0                 4           2             4   13     1      -0.1367952960E-03       4   13    1        -0.7873007771E-02      0.1387257810E-01
          0                 5           1             4   13     1      -0.6768820682E-04       4   13    1        -0.3895992369E-02      0.6819062518E-02

    ------------------------------------------------
       NWT REQUIRED            5 OUTER ITERATIONS 
       AND A TOTAL OF          9 INNER ITERATIONS.
    ------------------------------------------------

 NO OUTPUT CONTROL FOR STRESS PERIOD   17   TIME STEP    4
 
 SOLVING FOR HEAD 
                                                   Max.-Head-Change                         Max.-Flux-Residual
  Residual-Control   Outer-Iter.   Inner-Iter.     Column Row Layer    Maximum-Head-Change  Column Row Layer    Maximum-Flux-Residual          L2-NORM 
          0                 1           2             3   13     1      -0.5953209271E-02       3   13    1        -0.3470676497E+00      0.6641876620E+00
          0                 2           2             2   13     1      -0.3812265936E-03       2   13    1        -0.2165832566E-01      0.5574810935E-01
          0                 3           2             4   13     1      -0.3179219337E-03       4   13    1        -0.1857712925E-01      0.3166705459E-01
          0                 4           2             2   13     1      -0.1368937519E-03       4   13    1        -0.7938811677E-02      0.1401714915E-01
          0                 5           1             4   13     1      -0.6817897646E-04       4   13    1        -0.3981678679E-02      0.6962473996E-02

    ------------------------------------------------
       NWT REQUIRED            5 OUTER ITERATIONS 
       AND A TOTAL OF          9 INNER ITERATIONS.
    ------------------------------------------------

 NO OUTPUT CONTROL FOR STRESS PERIOD   17   TIME STEP    5
 
 SOLVING FOR HEAD 
                                                   Max.-Head-Change                         Max.-Flux-Residual
  Residual-Control   Outer-Iter.   Inner-Iter.     Column Row Layer    Maximum-Head-Change  Column Row Layer    Maximum-Flux-Residual          L2-NORM 
          0                 1           2             3   13     1      -0.5204582641E-02       3   13    1        -0.3032764381E+00      0.6255279846E+00
          0                 2           2             2   13     1      -0.4100321972E-03       2   13    1        -0.2326801094E-01      0.5673990152E-01
          0                 3           2             4   13     1      -0.3150645620E-03       4   13    1        -0.1847123097E-01      0.3142473291E-01
          0                 4           2             2   13     1      -0.1366616816E-03       4   13    1        -0.7940140479E-02      0.1401218522E-01
          0                 5           1             4   13     1      -0.6600368068E-04       4   13    1        -0.3867259444E-02      0.6760164382E-02

    ------------------------------------------------
       NWT REQUIRED            5 OUTER ITERATIONS 
       AND A TOTAL OF          9 INNER ITERATIONS.
    ------------------------------------------------

 NO OUTPUT CONTROL FOR STRESS PERIOD   17   TIME STEP    6
 
 SOLVING FOR HEAD 
                                                   Max.-Head-Change                         Max.-Flux-Residual
  Residual-Control   Outer-Iter.   Inner-Iter.     Column Row Layer    Maximum-Head-Change  Column Row Layer    Maximum-Flux-Residual          L2-NORM 
          0                 1           2             3   13     1      -0.4535365086E-02       3   13    1        -0.2643407310E+00      0.5831946431E+00
          0                 2           2             2   13     1      -0.4363276075E-03       2   13    1        -0.2473833557E-01      0.5853145323E-01
          0                 3           2             4   13     1      -0.3068472801E-03       4   13    1        -0.1798818045E-01      0.3078433496E-01
          0                 4           2             2   13     1      -0.1369086029E-03       4   13    1        -0.7989522685E-02      0.1407106350E-01
          0                 5           1             4   13     1      -0.6803098276E-04       4   13    1        -0.3986047263E-02      0.6965753987E-02

    ------------------------------------------------
       NWT REQUIRED            5 OUTER ITERATIONS 
       AND A TOTAL OF          9 INNER ITERATIONS.
    ------------------------------------------------

 NO OUTPUT CONTROL FOR STRESS PERIOD   17   TIME STEP    7
 
 SOLVING FOR HEAD 
                                                   Max.-Head-Change                         Max.-Flux-Residual
  Residual-Control   Outer-Iter.   Inner-Iter.     Column Row Layer    Maximum-Head-Change  Column Row Layer    Maximum-Flux-Residual          L2-NORM 
          0                 1           2             3   13     1      -0.3936686781E-02       3   13    1        -0.2295096827E+00      0.5480729511E+00
          0                 2           2             2   13     1      -0.4591561123E-03       2   13    1        -0.2601496608E-01      0.6048110521E-01
          0                 3           2             4   13     1      -0.3034482343E-03       4   13    1        -0.1778769223E-01      0.3060641022E-01
          0                 4           2             2   13     1      -0.1378717181E-03       4   13    1        -0.8076952540E-02      0.1419896489E-01
          0                 5           1             4   13     1      -0.6952668806E-04       4   13    1        -0.4073686840E-02      0.7118462815E-02

    ------------------------------------------------
       NWT REQUIRED            5 OUTER ITERATIONS 
       AND A TOTAL OF          9 INNER ITERATIONS.
    ------------------------------------------------

 NO OUTPUT CONTROL FOR STRESS PERIOD   17   TIME STEP    8
 
 SOLVING FOR HEAD 
                                                   Max.-Head-Change                         Max.-Flux-Residual
  Residual-Control   Outer-Iter.   Inner-Iter.     Column Row Layer    Maximum-Head-Change  Column Row Layer    Maximum-Flux-Residual          L2-NORM 
          0                 1           2             1    1     1       0.3809092217E-02       3   13    1        -0.1983291650E+00      0.5192167961E+00
          0                 2           2             2   13     1      -0.4836996169E-03       2   13    1        -0.2739038884E-01      0.6276943475E-01
          0                 3           2             4   13     1      -0.2974813938E-03       4   13    1        -0.1743690656E-01      0.3014416721E-01
          0                 4           2             4   13     1      -0.1382748091E-03       4   13    1        -0.8101801942E-02      0.1422158765E-01
          0                 5           1             4   13     1      -0.7054688401E-04       4   13    1        -0.4133451317E-02      0.7223031010E-02

    ------------------------------------------------
       NWT REQUIRED            5 OUTER ITERATIONS 
       AND A TOTAL OF          9 INNER ITERATIONS.
    ------------------------------------------------

 NO OUTPUT CONTROL FOR STRESS PERIOD   17   TIME STEP    9
 
 SOLVING FOR HEAD 
                                                   Max.-Head-Change                         Max.-Flux-Residual
  Residual-Control   Outer-Iter.   Inner-Iter.     Column Row Layer    Maximum-Head-Change  Column Row Layer    Maximum-Flux-Residual          L2-NORM 
          0                 1           2             1    1     1       0.3805326225E-02       1    1    1         0.1975314825E+00      0.4957946084E+00
          0                 2           2             2   13     1      -0.5058785291E-03       2   13    1        -0.2863385435E-01      0.6501684185E-01
          0                 3           2             4   13     1      -0.2931680492E-03       4   13    1        -0.1718320838E-01      0.2982795948E-01
          0                 4           2             4   13     1      -0.1373040370E-03       4   13    1        -0.8044964949E-02      0.1410769255E-01
          0                 5           1             4   13     1      -0.6993353482E-04       4   13    1        -0.4097516989E-02      0.7160043915E-02

    ------------------------------------------------
       NWT REQUIRED            5 OUTER ITERATIONS 
       AND A TOTAL OF          9 INNER ITERATIONS.
    ------------------------------------------------

 NO OUTPUT CONTROL FOR STRESS PERIOD   17   TIME STEP   10
 
 SOLVING FOR HEAD 
                                                   Max.-Head-Change                         Max.-Flux-Residual
  Residual-Control   Outer-Iter.   Inner-Iter.     Column Row Layer    Maximum-Head-Change  Column Row Layer    Maximum-Flux-Residual          L2-NORM 
          0                 1           2             1    1     1       0.3801596167E-02       1    1    1         0.1973373916E+00      0.4769951374E+00
          0                 2           2             2   13     1      -0.5261584130E-03       2   13    1        -0.2977144884E-01      0.6717037012E-01
          0                 3           2             4   13     1      -0.2875909090E-03       4   13    1        -0.1685558055E-01      0.2936436788E-01
          0                 4           2             4   13     1      -0.1395791029E-03       4   13    1        -0.8178374282E-02      0.1432649209E-01
          0                 5           1             4   13     1      -0.7039270318E-04       4   13    1        -0.4124401932E-02      0.7208024760E-02

    ------------------------------------------------
       NWT REQUIRED            5 OUTER ITERATIONS 
       AND A TOTAL OF          9 INNER ITERATIONS.
    ------------------------------------------------

 NO OUTPUT CONTROL FOR STRESS PERIOD   17   TIME STEP   11
 
 SOLVING FOR HEAD 
                                                   Max.-Head-Change                         Max.-Flux-Residual
  Residual-Control   Outer-Iter.   Inner-Iter.     Column Row Layer    Maximum-Head-Change  Column Row Layer    Maximum-Flux-Residual          L2-NORM 
          0                 1           2             1    1     1       0.3797856896E-02       1    1    1         0.1971428245E+00      0.4620948413E+00
          0                 2           2             2   13     1      -0.5450641538E-03       2   13    1        -0.3083263540E-01      0.6922946616E-01
          0                 3           2             4   13     1      -0.2848124604E-03       4   13    1        -0.1669209186E-01      0.2917489350E-01
          0                 4           2             4   13     1      -0.1399938377E-03       4   13    1        -0.8202710407E-02      0.1435385476E-01
          0                 5           1             4   13     1      -0.7056078005E-04       4   13    1        -0.4134342558E-02      0.7224516174E-02

    ------------------------------------------------
       NWT REQUIRED            5 OUTER ITERATIONS 
       AND A TOTAL OF          9 INNER ITERATIONS.
    ------------------------------------------------

 NO OUTPUT CONTROL FOR STRESS PERIOD   17   TIME STEP   12
 
 SOLVING FOR HEAD 
                                                   Max.-Head-Change                         Max.-Flux-Residual
  Residual-Control   Outer-Iter.   Inner-Iter.     Column Row Layer    Maximum-Head-Change  Column Row Layer    Maximum-Flux-Residual          L2-NORM 
          0                 1           2             1    1     1       0.3794130889E-02       1    1    1         0.1969489494E+00      0.4504232290E+00
          0                 2           2             2   13     1      -0.5601808517E-03       2   13    1        -0.3168080251E-01      0.7094974301E-01
          0                 3           2             4   13     1      -0.2838277342E-03       4   13    1        -0.1663387515E-01      0.2914741547E-01
          0                 4           2             4   13     1      -0.1412158031E-03       4   13    1        -0.8274358857E-02      0.1446869719E-01
          0                 5           1             4   13     1      -0.7071500577E-04       4   13    1        -0.4143362670E-02      0.7241091547E-02

    ------------------------------------------------
       NWT REQUIRED            5 OUTER ITERATIONS 
       AND A TOTAL OF          9 INNER ITERATIONS.
    ------------------------------------------------

 NO OUTPUT CONTROL FOR STRESS PERIOD   17   TIME STEP   13
 
 SOLVING FOR HEAD 
                                                   Max.-Head-Change                         Max.-Flux-Residual
  Residual-Control   Outer-Iter.   Inner-Iter.     Column Row Layer    Maximum-Head-Change  Column Row Layer    Maximum-Flux-Residual          L2-NORM 
          0                 1           2             1    1     1       0.3790418096E-02       1    1    1         0.1967557620E+00      0.4413931121E+00
          0                 2           2             2   13     1      -0.5785404493E-03       4   13    1        -0.3344029332E-01      0.7290862798E-01
          0                 3           2             4   13     1      -0.2796490321E-03       4   13    1        -0.1638852878E-01      0.2878602699E-01
          0                 4           2             4   13     1      -0.1411577004E-03       4   13    1        -0.8270997298E-02      0.1445417313E-01
          0                 5           1             4   13     1      -0.7071746074E-04       4   13    1        -0.4143499167E-02      0.7241661245E-02

    ------------------------------------------------
       NWT REQUIRED            5 OUTER ITERATIONS 
       AND A TOTAL OF          9 INNER ITERATIONS.
    ------------------------------------------------

 NO OUTPUT CONTROL FOR STRESS PERIOD   17   TIME STEP   14
 
 SOLVING FOR HEAD 
                                                   Max.-Head-Change                         Max.-Flux-Residual
  Residual-Control   Outer-Iter.   Inner-Iter.     Column Row Layer    Maximum-Head-Change  Column Row Layer    Maximum-Flux-Residual          L2-NORM 
          0                 1           2             1    1     1       0.3786740980E-02       1    1    1         0.1965644299E+00      0.4344926567E+00
          0                 2           2             4   13     1      -0.5986767663E-03       4   13    1        -0.3505065696E-01      0.7462898764E-01
          0                 3           2             4   13     1      -0.2753890213E-03       4   13    1        -0.1613850387E-01      0.2840566414E-01
          0                 4           2             4   13     1      -0.1414209455E-03       4   13    1        -0.8286462202E-02      0.1447398111E-01
          0                 5           1             4   13     1      -0.7060869070E-04       4   13    1        -0.4137117655E-02      0.7231580794E-02

    ------------------------------------------------
       NWT REQUIRED            5 OUTER ITERATIONS 
       AND A TOTAL OF          9 INNER ITERATIONS.
    ------------------------------------------------

 NO OUTPUT CONTROL FOR STRESS PERIOD   17   TIME STEP   15
 
 SOLVING FOR HEAD 
                                                   Max.-Head-Change                         Max.-Flux-Residual
  Residual-Control   Outer-Iter.   Inner-Iter.     Column Row Layer    Maximum-Head-Change  Column Row Layer    Maximum-Flux-Residual          L2-NORM 
          0                 1           2             1    1     1       0.3783054381E-02       1    1    1         0.1963726073E+00      0.4293150574E+00
          0                 2           2             4   13     1      -0.6223060275E-03       4   13    1        -0.3643901551E-01      0.7615979930E-01
          0                 3           2             4   13     1      -0.2737436291E-03       4   13    1        -0.1604177408E-01      0.2828217845E-01
          0                 4           2             4   13     1      -0.1415541982E-03       4   13    1        -0.8294291650E-02      0.1448244177E-01
          0                 5           1             4   13     1      -0.7066819324E-04       4   13    1        -0.4140611469E-02      0.7236718236E-02

    ------------------------------------------------
       NWT REQUIRED            5 OUTER ITERATIONS 
       AND A TOTAL OF          9 INNER ITERATIONS.
    ------------------------------------------------

 NO OUTPUT CONTROL FOR STRESS PERIOD   17   TIME STEP   16
 
 SOLVING FOR HEAD 
                                                   Max.-Head-Change                         Max.-Flux-Residual
  Residual-Control   Outer-Iter.   Inner-Iter.     Column Row Layer    Maximum-Head-Change  Column Row Layer    Maximum-Flux-Residual          L2-NORM 
          0                 1           2             1    1     1       0.3779380802E-02       1    1    1         0.1961814632E+00      0.4254838417E+00
          0                 2           2             4   13     1      -0.6411594859E-03       4   13    1        -0.3754682957E-01      0.7738637428E-01
          0                 3           2             4   13     1      -0.2734681012E-03       4   13    1        -0.1602540624E-01      0.2828732980E-01
          0                 4           2             4   13     1      -0.1425501785E-03       4   13    1        -0.8352663045E-02      0.1458106597E-01
          0                 5           1             4   13     1      -0.7087164169E-04       4   13    1        -0.4152521067E-02      0.7258514549E-02

    ------------------------------------------------
       NWT REQUIRED            5 OUTER ITERATIONS 
       AND A TOTAL OF          9 INNER ITERATIONS.
    ------------------------------------------------

 NO OUTPUT CONTROL FOR STRESS PERIOD   17   TIME STEP   17
 
 SOLVING FOR HEAD 
                                                   Max.-Head-Change                         Max.-Flux-Residual
  Residual-Control   Outer-Iter.   Inner-Iter.     Column Row Layer    Maximum-Head-Change  Column Row Layer    Maximum-Flux-Residual          L2-NORM 
          0                 1           2             1    1     1       0.3775720161E-02       1    1    1         0.1959909941E+00      0.4226989133E+00
          0                 2           2             4   13     1      -0.6588622707E-03       4   13    1        -0.3858663303E-01      0.7859503812E-01
          0                 3           2             4   13     1      -0.2736919988E-03       4   13    1        -0.1603831965E-01      0.2833989968E-01
          0                 4           2             4   13     1      -0.1422578597E-03       4   13    1        -0.8335545075E-02      0.1454708555E-01
          0                 5           1             4   13     1      -0.7081077004E-04       4   13    1        -0.4148832234E-02      0.7258303476E-02

    ------------------------------------------------
       NWT REQUIRED            5 OUTER ITERATIONS 
       AND A TOTAL OF          9 INNER ITERATIONS.
    ------------------------------------------------

 NO OUTPUT CONTROL FOR STRESS PERIOD   17   TIME STEP   18
 
 SOLVING FOR HEAD 
                                                   Max.-Head-Change                         Max.-Flux-Residual
  Residual-Control   Outer-Iter.   Inner-Iter.     Column Row Layer    Maximum-Head-Change  Column Row Layer    Maximum-Flux-Residual          L2-NORM 
          0                 1           2             1    1     1       0.3772072413E-02       1    1    1         0.1958011959E+00      0.4207334304E+00
          0                 2           2             4   13     1      -0.6582794741E-03       4   13    1        -0.3963594855E-01      0.7988782900E-01
          0                 3           2             4   13     1      -0.2839978862E-03       4   13    1        -0.1712142745E-01      0.2884542899E-01
          0                 4           2             4   13     1      -0.1448040572E-03       4   13    1        -0.8726751842E-02      0.1476210686E-01
          0                 5           1             4   13     1      -0.7249285077E-04       4   13    1        -0.4368884422E-02      0.7374866873E-02

    ------------------------------------------------
       NWT REQUIRED            5 OUTER ITERATIONS 
       AND A TOTAL OF          9 INNER ITERATIONS.
    ------------------------------------------------

 NO OUTPUT CONTROL FOR STRESS PERIOD   17   TIME STEP   19
 
 SOLVING FOR HEAD 
                                                   Max.-Head-Change                         Max.-Flux-Residual
  Residual-Control   Outer-Iter.   Inner-Iter.     Column Row Layer    Maximum-Head-Change  Column Row Layer    Maximum-Flux-Residual          L2-NORM 
          0                 1           2             1    1     1       0.3768437493E-02       1    1    1         0.1956120662E+00      0.4193880864E+00
          0                 2           2             4   13     1      -0.6731097590E-03       4   13    1        -0.4053085161E-01      0.8101386102E-01
          0                 3           2             4   13     1      -0.2824057346E-03       4   13    1        -0.1702566549E-01      0.2866607836E-01
          0                 4           2             4   13     1      -0.1451395629E-03       4   13    1        -0.8746902323E-02      0.1480263596E-01
          0                 5           1             4   13     1      -0.7227027119E-04       4   13    1        -0.4355498247E-02      0.7349426225E-02

    ------------------------------------------------
       NWT REQUIRED            5 OUTER ITERATIONS 
       AND A TOTAL OF          9 INNER ITERATIONS.
    ------------------------------------------------

 NO OUTPUT CONTROL FOR STRESS PERIOD   17   TIME STEP   20
 
 SOLVING FOR HEAD 
                                                   Max.-Head-Change                         Max.-Flux-Residual
  Residual-Control   Outer-Iter.   Inner-Iter.     Column Row Layer    Maximum-Head-Change  Column Row Layer    Maximum-Flux-Residual          L2-NORM 
          0                 1           2             1    1     1       0.3764815341E-02       1    1    1         0.1954236016E+00      0.4185063387E+00
          0                 2           2             4   13     1      -0.6859063187E-03       4   13    1        -0.4130290463E-01      0.8200332985E-01
          0                 3           2             4   13     1      -0.2817360401E-03       4   13    1        -0.1698546000E-01      0.2919887801E-01
          0                 4           2             4   13     1      -0.1450916151E-03       4   13    1        -0.8743984567E-02      0.1500641833E-01
          0                 5           1             4   13     1      -0.7253634261E-04       4   13    1        -0.4371526010E-02      0.7492082767E-02

    ------------------------------------------------
       NWT REQUIRED            5 OUTER ITERATIONS 
       AND A TOTAL OF          9 INNER ITERATIONS.
    ------------------------------------------------

 NO OUTPUT CONTROL FOR STRESS PERIOD   17   TIME STEP   21
 
 SOLVING FOR HEAD 
                                                   Max.-Head-Change                         Max.-Flux-Residual
  Residual-Control   Outer-Iter.   Inner-Iter.     Column Row Layer    Maximum-Head-Change  Column Row Layer    Maximum-Flux-Residual          L2-NORM 
          0                 1           2             1    1     1       0.3761205917E-02       1    1    1         0.1952357989E+00      0.4179701596E+00
          0                 2           2             4   13     1      -0.6954356550E-03       4   13    1        -0.4187783397E-01      0.8273639494E-01
          0                 3           2             4   13     1      -0.2810594918E-03       4   13    1        -0.1693438365E-01      0.2965203386E-01
          0                 4           2             4   13     1      -0.1453068829E-03       4   13    1        -0.8753497984E-02      0.1520468485E-01
          0                 5           1             4   13     1      -0.7267940615E-04       4   13    1        -0.4378192968E-02      0.7607769454E-02

    ------------------------------------------------
       NWT REQUIRED            5 OUTER ITERATIONS 
       AND A TOTAL OF          9 INNER ITERATIONS.
    ------------------------------------------------

 NO OUTPUT CONTROL FOR STRESS PERIOD   17   TIME STEP   22
 
 SOLVING FOR HEAD 
                                                   Max.-Head-Change                         Max.-Flux-Residual
  Residual-Control   Outer-Iter.   Inner-Iter.     Column Row Layer    Maximum-Head-Change  Column Row Layer    Maximum-Flux-Residual          L2-NORM 
          0                 1           2             1    1     1       0.3757609136E-02       1    1    1         0.1950486563E+00      0.4176847673E+00
          0                 2           2             4   13     1      -0.7037550504E-03       4   13    1        -0.4237963340E-01      0.8339204300E-01
          0                 3           2             4   13     1      -0.2816747128E-03       4   13    1        -0.1697142919E-01      0.2990166322E-01
          0                 4           2             4   13     1      -0.1457896858E-03       4   13    1        -0.8782563725E-02      0.1531893997E-01
          0                 5           1             4   13     1      -0.7266456445E-04       4   13    1        -0.4377305904E-02      0.7640205834E-02

    ------------------------------------------------
       NWT REQUIRED            5 OUTER ITERATIONS 
       AND A TOTAL OF          9 INNER ITERATIONS.
    ------------------------------------------------

 NO OUTPUT CONTROL FOR STRESS PERIOD   17   TIME STEP   23
 
 SOLVING FOR HEAD 
                                                   Max.-Head-Change                         Max.-Flux-Residual
  Residual-Control   Outer-Iter.   Inner-Iter.     Column Row Layer    Maximum-Head-Change  Column Row Layer    Maximum-Flux-Residual          L2-NORM 
          0                 1           2             1    1     1       0.3754024937E-02       1    1    1         0.1948621691E+00      0.4175768336E+00
          0                 2           2             4   13     1      -0.7137263251E-03       4   13    1        -0.4298076512E-01      0.8422202391E-01
          0                 3           2             4   13     1      -0.2808754773E-03       4   13    1        -0.1692321512E-01      0.2982484242E-01
          0                 4           2             4   13     1      -0.1457144626E-03       4   13    1        -0.8778028605E-02      0.1531120905E-01
          0                 5           1             4   13     1      -0.7259889381E-04       4   13    1        -0.4373345193E-02      0.7633393499E-02

    ------------------------------------------------
       NWT REQUIRED            5 OUTER ITERATIONS 
       AND A TOTAL OF          9 INNER ITERATIONS.
    ------------------------------------------------

 NO OUTPUT CONTROL FOR STRESS PERIOD   17   TIME STEP   24
 
 SOLVING FOR HEAD 
                                                   Max.-Head-Change                         Max.-Flux-Residual
  Residual-Control   Outer-Iter.   Inner-Iter.     Column Row Layer    Maximum-Head-Change  Column Row Layer    Maximum-Flux-Residual          L2-NORM 
          0                 1           2             1    1     1       0.3750453259E-02       1    1    1         0.1946763343E+00      0.4175909444E+00
          0                 2           2             4   13     1      -0.7226031799E-03       4   13    1        -0.4351581088E-01      0.8497383317E-01
          0                 3           2             4   13     1      -0.2802903577E-03       4   13    1        -0.1688794695E-01      0.2976500870E-01
          0                 4           2             4   13     1      -0.1456288759E-03       4   13    1        -0.8772761578E-02      0.1530795284E-01
          0                 5           1             4   13     1      -0.7224800456E-04       4   13    1        -0.4352312341E-02      0.7592369249E-02

    ------------------------------------------------
       NWT REQUIRED            5 OUTER ITERATIONS 
       AND A TOTAL OF          9 INNER ITERATIONS.
    ------------------------------------------------

 NO OUTPUT CONTROL FOR STRESS PERIOD   17   TIME STEP   25
 
 SOLVING FOR HEAD 
                                                   Max.-Head-Change                         Max.-Flux-Residual
  Residual-Control   Outer-Iter.   Inner-Iter.     Column Row Layer    Maximum-Head-Change  Column Row Layer    Maximum-Flux-Residual          L2-NORM 
          0                 1           2             1    1     1       0.3746894066E-02       1    1    1         0.1944911487E+00      0.4176912805E+00
          0                 2           2             4   13     1      -0.7291834568E-03       4   13    1        -0.4391232287E-01      0.8554129499E-01
          0                 3           2             4   13     1      -0.2780532602E-03       4   13    1        -0.1675315684E-01      0.2953337669E-01
          0                 4           2             4   13     1      -0.1462093112E-03       4   13    1        -0.8807844200E-02      0.1536329328E-01
          0                 5           1             4   13     1      -0.7251723701E-04       4   13    1        -0.4368432877E-02      0.7625944142E-02

    ------------------------------------------------
       NWT REQUIRED            5 OUTER ITERATIONS 
       AND A TOTAL OF          9 INNER ITERATIONS.
    ------------------------------------------------

 NO OUTPUT CONTROL FOR STRESS PERIOD   17   TIME STEP   26
 
 SOLVING FOR HEAD 
                                                   Max.-Head-Change                         Max.-Flux-Residual
  Residual-Control   Outer-Iter.   Inner-Iter.     Column Row Layer    Maximum-Head-Change  Column Row Layer    Maximum-Flux-Residual          L2-NORM 
          0                 1           2             1    1     1       0.3743347291E-02       1    1    1         0.1943066105E+00      0.4178274277E+00
          0                 2           2             4   13     1      -0.7383498798E-03       4   13    1        -0.4446452044E-01      0.8635735853E-01
          0                 3           2             4   13     1      -0.2758881739E-03       4   13    1        -0.1662269528E-01      0.2930977001E-01
          0                 4           2             4   13     1      -0.1449959824E-03       4   13    1        -0.8734756360E-02      0.1523507832E-01
          0                 5           1             4   13     1      -0.7236429708E-04       4   13    1        -0.4359196099E-02      0.7611330652E-02

    ------------------------------------------------
       NWT REQUIRED            5 OUTER ITERATIONS 
       AND A TOTAL OF          9 INNER ITERATIONS.
    ------------------------------------------------

 NO OUTPUT CONTROL FOR STRESS PERIOD   17   TIME STEP   27
 
 SOLVING FOR HEAD 
                                                   Max.-Head-Change                         Max.-Flux-Residual
  Residual-Control   Outer-Iter.   Inner-Iter.     Column Row Layer    Maximum-Head-Change  Column Row Layer    Maximum-Flux-Residual          L2-NORM 
          0                 1           2             1    1     1       0.3739812881E-02       1    1    1         0.1941227161E+00      0.4179855980E+00
          0                 2           2             4   13     1      -0.7405481502E-03       4   13    1        -0.4459690548E-01      0.8654306213E-01
          0                 3           2             4   13     1      -0.2779021779E-03       4   13    1        -0.1674404037E-01      0.2951802492E-01
          0                 4           2             4   13     1      -0.1459168891E-03       4   13    1        -0.8790243075E-02      0.1533195551E-01
          0                 5           1             4   13     1      -0.7279621920E-04       4   13    1        -0.4385202044E-02      0.7658621144E-02

    ------------------------------------------------
       NWT REQUIRED            5 OUTER ITERATIONS 
       AND A TOTAL OF          9 INNER ITERATIONS.
    ------------------------------------------------

 NO OUTPUT CONTROL FOR STRESS PERIOD   17   TIME STEP   28
 
 SOLVING FOR HEAD 
                                                   Max.-Head-Change                         Max.-Flux-Residual
  Residual-Control   Outer-Iter.   Inner-Iter.     Column Row Layer    Maximum-Head-Change  Column Row Layer    Maximum-Flux-Residual          L2-NORM 
          0                 1           2             1    1     1       0.3736290753E-02       1    1    1         0.1939394628E+00      0.4181488611E+00
          0                 2           2             4   13     1      -0.7463086994E-03       4   13    1        -0.4494376441E-01      0.8706824111E-01
          0                 3           2             4   13     1      -0.2778429735E-03       4   13    1        -0.1674048478E-01      0.2951085502E-01
          0                 4           2             4   13     1      -0.1459324587E-03       4   13    1        -0.8791146553E-02      0.1533642654E-01
          0                 5           1             4   13     1      -0.7257385129E-04       4   13    1        -0.4371829026E-02      0.7632920230E-02

    ------------------------------------------------
       NWT REQUIRED            5 OUTER ITERATIONS 
       AND A TOTAL OF          9 INNER ITERATIONS.
    ------------------------------------------------

 NO OUTPUT CONTROL FOR STRESS PERIOD   17   TIME STEP   29
 
 SOLVING FOR HEAD 
                                                   Max.-Head-Change                         Max.-Flux-Residual
  Residual-Control   Outer-Iter.   Inner-Iter.     Column Row Layer    Maximum-Head-Change  Column Row Layer    Maximum-Flux-Residual          L2-NORM 
          0                 1           2             1    1     1       0.3263239629E-02       1    1    1         0.1693670555E+00      0.4013783089E+00
          0                 2           2             4   13     1      -0.5189286932E-03       4   13    1        -0.3036173333E-01      0.6346772178E-01
          0                 3           2             4   13     1      -0.2826261674E-03       4   13    1        -0.1655040763E-01      0.2914489158E-01
          0                 4           2             4   13     1      -0.1397963342E-03       4   13    1        -0.8184727998E-02      0.1429228226E-01
          0                 5           1             4   13     1      -0.7047404429E-04       4   13    1        -0.4126045617E-02      0.7212283494E-02

    ------------------------------------------------
       NWT REQUIRED            5 OUTER ITERATIONS 
       AND A TOTAL OF          9 INNER ITERATIONS.
    ------------------------------------------------

 NO OUTPUT CONTROL FOR STRESS PERIOD   17   TIME STEP   30



 STREAM LISTING     PERIOD     17   STEP       30

 LAYER ROW COL. STREAM  RCH.  FLOW INTO     FLOW TO   FLOW OUT OF   OVRLND.     DIRECT     STREAM       STREAM     STREAM     STREAM   STREAMBED  STREAMBED
                SEG.NO.  NO.  STRM. RCH.    AQUIFER    STRM. RCH.    RUNOFF     PRECIP       ET          HEAD       DEPTH      WIDTH   CONDCTNC.   GRADIENT

   1    1    1     1     1    4.9431E+01  3.3436E-01   4.9097E+01  0.000E+00  0.000E+00  0.000E+00  1.09444E+03  1.395E+00  1.690E+01  7.607E-02  1.465E+00
   1    2    2     1     2    4.9097E+01  5.1808E-01   4.8579E+01  0.000E+00  0.000E+00  0.000E+00  1.08945E+03  1.393E+00  1.685E+01  1.179E-01  1.464E+00
   1    3    3     1     3    4.8579E+01  4.4210E-01   4.8137E+01  0.000E+00  0.000E+00  0.000E+00  1.08381E+03  1.390E+00  1.679E+01  1.007E-01  1.463E+00
   1    3    4     1     4    4.8137E+01  4.0732E-01   4.7729E+01  0.000E+00  0.000E+00  0.000E+00  1.07879E+03  1.387E+00  1.673E+01  9.285E-02  1.462E+00
   1    4    5     2     1    4.5729E+01  3.6899E-01   4.5360E+01  0.000E+00  0.000E+00  0.000E+00  1.07366E+03  1.731E+00  1.200E+01  7.800E-02  1.577E+00
   1    5    6     2     2    4.5360E+01  2.8339E-01   4.5077E+01  0.000E+00  0.000E+00  0.000E+00  1.06823E+03  1.723E+00  1.200E+01  6.000E-02  1.574E+00
   1    6    6     2     3    4.5077E+01  2.8300E-01   4.4794E+01  0.000E+00  0.000E+00  0.000E+00  1.06351E+03  1.717E+00  1.200E+01  6.000E-02  1.572E+00
   1    7    6     2     4    4.4794E+01  2.8261E-01   4.4511E+01  0.000E+00  0.000E+00  0.000E+00  1.05879E+03  1.710E+00  1.200E+01  6.000E-02  1.570E+00
   1    8    6     2     5    4.4511E+01  2.8222E-01   4.4229E+01  0.000E+00  0.000E+00  0.000E+00  1.05406E+03  1.704E+00  1.200E+01  6.000E-02  1.568E+00
   1    3    5     3     1    2.0000E+00  2.8252E-01   1.7175E+00  0.000E+00  0.000E+00  0.000E+00  1.07555E+03  1.909E+00  9.636E+00  7.227E-02  1.955E+00
   1    3    6     3     2    1.7175E+00  2.4905E-01   1.4684E+00  0.000E+00  0.000E+00  0.000E+00  1.07264E+03  1.727E+00  8.909E+00  6.682E-02  1.864E+00
   1    3    7     3     3    1.4684E+00  1.9718E-01   1.2712E+00  0.000E+00  0.000E+00  0.000E+00  1.06987E+03  1.555E+00  8.218E+00  5.547E-02  1.777E+00
   1    4    8     3     4    1.2712E+00  2.2567E-01   1.0456E+00  0.000E+00  0.000E+00  0.000E+00  1.06682E+03  1.364E+00  7.455E+00  6.709E-02  1.682E+00
   1    5    8     3     5    1.0456E+00  1.5790E-01   8.8768E-01  0.000E+00  0.000E+00  0.000E+00  1.06362E+03  1.164E+00  6.655E+00  4.991E-02  1.582E+00
   1    6    8     3     6    8.8768E-01  5.5980E-02   8.3170E-01  0.000E+00  0.000E+00  0.000E+00  1.06158E+03  1.036E+00  6.145E+00  1.844E-02  1.518E+00
   1    5   10     4     1    1.0000E+01  9.0919E-02   9.9091E+00  0.000E+00  0.000E+00  0.000E+00  1.07836E+03  6.368E-01  1.000E+01  2.500E-02  1.212E+00
   1    5    9     4     2    9.9091E+00  1.8158E-01   9.7275E+00  0.000E+00  0.000E+00  0.000E+00  1.07154E+03  6.315E-01  1.000E+01  5.000E-02  1.211E+00
   1    6    8     4     3    9.7275E+00  1.2689E-01   9.6006E+00  0.000E+00  0.000E+00  0.000E+00  1.06381E+03  6.256E-01  1.000E+01  3.500E-02  1.209E+00
   1    6    8     5     1    1.0432E+01  2.2686E-01   1.0205E+01  0.000E+00  0.000E+00  0.000E+00  1.05868E+03  6.790E-01  1.542E+01  6.166E-02  1.226E+00
   1    7    7     5     2    1.0205E+01  2.7894E-01   9.9265E+00  0.000E+00  0.000E+00  0.000E+00  1.05417E+03  6.732E-01  1.519E+01  7.594E-02  1.224E+00
   1    8    7     5     3    9.9265E+00  1.9221E-01   9.7343E+00  0.000E+00  0.000E+00  0.000E+00  1.04992E+03  6.676E-01  1.497E+01  5.241E-02  1.223E+00
   1    8    6     5     4    9.7343E+00  1.3577E-01   9.5985E+00  0.000E+00  0.000E+00  0.000E+00  1.04691E+03  6.637E-01  1.482E+01  3.706E-02  1.221E+00
   1    9    6     6     1    5.0360E+01  2.9148E-01   5.0068E+01  0.000E+00  0.000E+00  0.000E+00  1.04459E+03  1.858E+00  1.200E+01  6.000E-02  1.619E+00
   1   10    7     6     2    5.0068E+01  2.9109E-01   4.9777E+01  0.000E+00  0.000E+00  0.000E+00  1.04003E+03  1.852E+00  1.200E+01  6.000E-02  1.617E+00
   1   11    7     6     3    4.9777E+01  2.9071E-01   4.9487E+01  0.000E+00  0.000E+00  0.000E+00  1.03548E+03  1.845E+00  1.200E+01  6.000E-02  1.615E+00
   1   12    7     6     4    4.9487E+01  2.9032E-01   4.9196E+01  0.000E+00  0.000E+00  0.000E+00  1.03093E+03  1.839E+00  1.200E+01  6.000E-02  1.613E+00
   1   13    7     6     5    4.9196E+01  1.4030E-02   4.9182E+01  0.000E+00  0.000E+00  0.000E+00  1.02774E+03  1.835E+00  1.200E+01  2.400E-02  1.949E-01
   1   14    9     7     1    1.5000E+02  1.3361E+00   1.4866E+02  0.000E+00  0.000E+00  0.000E+00  1.03987E+03  2.288E+00  5.529E+01  5.593E-01  7.963E-01
   1   13    8     7     2    1.4866E+02  1.8193E+00   1.4684E+02  0.000E+00  0.000E+00  0.000E+00  1.03478E+03  2.279E+00  5.526E+01  6.148E-01  9.864E-01
   1   13    7     7     3    1.4684E+02  1.4131E+00   1.4543E+02  0.000E+00  0.000E+00  0.000E+00  1.02969E+03  2.271E+00  5.522E+01  5.585E-01  8.434E-01
   1   13    6     8     1    1.9461E+02  9.5262E-01   1.9366E+02  0.000E+00  0.000E+00  0.000E+00  1.02498E+03  3.104E+00  4.500E+01  4.586E-01  6.924E-01
   1   13    5     8     2    1.9366E+02  1.6307E-01   1.9350E+02  0.000E+00  0.000E+00  0.000E+00  1.01873E+03  3.100E+00  4.495E+01  4.581E-01  1.187E-01
   1   13    4     8     3    1.9350E+02 -2.6071E+00   1.9610E+02  0.000E+00  0.000E+00  0.000E+00  1.01248E+03  3.108E+00  4.506E+01  4.592E+00 -1.893E-01
   1   13    3     8     4    1.9610E+02 -3.7589E+00   1.9986E+02  0.000E+00  0.000E+00  0.000E+00  1.00625E+03  3.126E+00  4.533E+01  4.620E+00 -2.712E-01
   1   13    2     8     5    1.9986E+02 -2.7084E+00   2.0257E+02  0.000E+00  0.000E+00  0.000E+00  1.00002E+03  3.146E+00  4.561E+01  4.648E+00 -1.942E-01
   1   13    1     8     6    2.0257E+02 -2.0674E+00   2.0464E+02  0.000E+00  0.000E+00  0.000E+00  9.95034E+02  3.159E+00  4.581E+01  2.801E+00 -2.460E-01
   1    8    6     9     1    3.4679E+00  0.0000E+00   3.4679E+00  0.000E+00  0.000E+00  0.000E+00  1.07993E+03  1.177E+00  4.000E+00  0.000E+00  1.392E+00
   1    8    5     9     2    3.4679E+00  0.0000E+00   3.4679E+00  0.000E+00  0.000E+00  0.000E+00  1.07943E+03  1.177E+00  4.000E+00  0.000E+00  1.392E+00





UNSATURATED ZONE PACKAGE VOLUMETRIC BUDGET FOR  TIME STEP    30 STRESS PERIOD   17
  ------------------------------------------------------------------------------



     CUMULATIVE VOLUMES      L**3       RATES FOR THIS TIME STEP      L**3/T
     ------------------                 ------------------------

           IN:                                      IN:
           ---                                      ---
        INFILTRATION =   593652948.1008          INFILTRATION =           7.8755

          OUT:                                     OUT:
          ----                                     ----
              UZF ET =   535615221.8805                UZF ET =           7.8013
        UZF RECHARGE =      654716.9165          UZF RECHARGE =       0.0000E+00

            IN - OUT =    57383009.3038              IN - OUT =       7.4193E-02

          STORAGE:                                 STORAGE:
          --------                                 --------
      STORAGE CHANGE =    57383603.7761        STORAGE CHANGE =       7.4193E-02

 PERCENT DISCREPANCY IS DIFFERENCE BETWEEN IN-OUT MINUS CHANGE IN STORAGE
 DIVIDED BY THE AVERAGE OF IN AND OUT TIMES 100

 PERCENT DISCREPANCY =          -0.00     PERCENT DISCREPANCY =           0.00






1
  VOLUMETRIC BUDGET FOR AGRICULTURAL FIELDS AT TIME STEP   30, STRESS PERIOD  17
  ------------------------------------------------------------------------------

     CUMULATIVE VOLUMES      L**3       RATES FOR THIS TIME STEP      L**3/T
     ------------------                 ------------------------

           IN:                                      IN:
           ---                                      ---
               AG WELLS  =    44249552.0000                 AG WELLS  =           0.0000
      DIVERSION SEGMENTS =   363855264.0000        DIVERSION SEGMENTS =           3.4679
           GW IRRIGATION =           0.0000             GW IRRIGATION =           0.0000
           SW IRRIGATION =           0.0000             SW IRRIGATION =           0.0000
        SYSTEM LOSSES GW =           0.0000          SYSTEM LOSSES GW =           0.0000
        SYSTEM LOSSES SW =           0.0000          SYSTEM LOSSES SW =           0.0000

                TOTAL IN =   408104832.0000                  TOTAL IN =           3.4679

          OUT:                                     OUT:
          ----                                     ----
               AG WELLS  =           0.0000                 AG WELLS  =           0.0000
      DIVERSION SEGMENTS =           0.0000        DIVERSION SEGMENTS =           0.0000
           GW IRRIGATION =    44249552.0000             GW IRRIGATION =           0.0000
           SW IRRIGATION =   363862592.0000             SW IRRIGATION =           3.4680
        SYSTEM LOSSES GW =           0.0000          SYSTEM LOSSES GW =           0.0000
        SYSTEM LOSSES SW =           0.0000          SYSTEM LOSSES SW =           0.0000

               TOTAL OUT =   408112128.0000                 TOTAL OUT =           3.4680

                IN - OUT =       -7296.0000                  IN - OUT =      -6.9141E-05

     PERCENT DISCREPANCY =          -0.00         PERCENT DISCREPANCY =          -0.00



1
  VOLUMETRIC BUDGET FOR ENTIRE MODEL AT END OF TIME STEP   30, STRESS PERIOD  17
  ------------------------------------------------------------------------------

     CUMULATIVE VOLUMES      L**3       RATES FOR THIS TIME STEP      L**3/T
     ------------------                 ------------------------

           IN:                                      IN:
           ---                                      ---
             STORAGE     =    88603896.0000               STORAGE     =           0.8821
       CONSTANT HEAD     =           0.0000         CONSTANT HEAD     =           0.0000
     HEAD DEP BOUNDS     =    12048918.0000       HEAD DEP BOUNDS     =           0.2858
      STREAM LEAKAGE     =   506100256.0000        STREAM LEAKAGE     =          12.4654
        UZF RECHARGE     =      654716.8125          UZF RECHARGE     =           0.0000
               GW ET     =           0.0000                 GW ET     =           0.0000
     SURFACE LEAKAGE     =           0.0000       SURFACE LEAKAGE     =           0.0000
           AG WELLS      =           0.0000             AG WELLS      =           0.0000

                TOTAL IN =   607407808.0000                  TOTAL IN =          13.6333

          OUT:                                     OUT:
          ----                                     ----
             STORAGE     =    94840320.0000               STORAGE     =           2.0626
       CONSTANT HEAD     =           0.0000         CONSTANT HEAD     =           0.0000
     HEAD DEP BOUNDS     =    12273605.0000       HEAD DEP BOUNDS     =           0.2954
      STREAM LEAKAGE     =   454111488.0000        STREAM LEAKAGE     =          11.1418
        UZF RECHARGE     =           0.0000          UZF RECHARGE     =           0.0000
               GW ET     =     1915715.3750                 GW ET     =           0.1319
     SURFACE LEAKAGE     =           0.0000       SURFACE LEAKAGE     =           0.0000
           AG WELLS      =    44249552.0000             AG WELLS      =           0.0000

               TOTAL OUT =   607390656.0000                 TOTAL OUT =          13.6317

                IN - OUT =       17152.0000                  IN - OUT =       1.5879E-03

     PERCENT DISCREPANCY =           0.00         PERCENT DISCREPANCY =           0.01






         TIME SUMMARY AT END OF TIME STEP   30 IN STRESS PERIOD   17
                    SECONDS     MINUTES      HOURS       DAYS        YEARS
                    -----------------------------------------------------------
   TIME STEP LENGTH  87667.      1461.1      24.352      1.0147     2.77799E-03
 STRESS PERIOD TIME 2.63000E+06  43833.      730.56      30.440     8.33397E-02
         TOTAL TIME 4.21664E+07 7.02774E+05  11713.      488.04      1.3362    
1
1
                            STRESS PERIOD NO.   18, LENGTH =   2630000.    
                            -----------------------------------------------

                              NUMBER OF TIME STEPS =    30

                               MULTIPLIER FOR DELT =     1.000

                            INITIAL TIME STEP SIZE =   87666.66    

 REUSING NON-PARAMETER GHB CELLS FROM LAST STRESS PERIOD

      2 GHB CELLS

 REUSING STREAM SEGMENT DATA FROM LAST STRESS PERIOD



            AREAL INFILTRATION RATE
 READING ON UNIT   19 WITH FORMAT: (10F4.0)            

            1           2           3           4           5           6           7           8           9          10
 ........................................................................................................................
   1   1.2000E-09   0.000       0.000       0.000       0.000       0.000       0.000       0.000       0.000       0.000    
   2   2.1000E-09  2.0000E-09  8.0000E-10  8.5000E-09   0.000       0.000       0.000       0.000       0.000       0.000    
   3   5.0000E-10  1.1000E-09  8.8000E-09  5.5000E-09   0.000       0.000       0.000       0.000       0.000       0.000    
   4   8.5000E-09  1.1000E-09  1.1000E-09  1.1000E-09  2.0000E-09   0.000       0.000       0.000       0.000       0.000    
   5   8.5000E-09  1.1000E-09  1.1000E-09  1.1000E-09  1.1000E-09   0.000       0.000       0.000       0.000       0.000    
   6   8.5000E-09  5.2000E-09  2.1000E-09  1.1000E-09  1.5000E-09   0.000       0.000       0.000       0.000       0.000    
   7   8.5000E-09  5.2000E-09  2.1000E-09  1.2000E-09  2.0000E-09   0.000       0.000       0.000       0.000       0.000    
   8   5.0000E-10  5.2000E-09  2.1000E-09  1.2000E-09  5.0000E-09   0.000       0.000       0.000       0.000       0.000    
   9   5.0000E-10  5.2000E-09  2.1000E-09  1.2000E-09  5.0000E-09   0.000       0.000       0.000       0.000       0.000    
  10   5.0000E-10  5.2000E-09  2.1000E-09  1.2000E-09  5.8000E-09   0.000       0.000       0.000       0.000       0.000    
  11   1.0000E-10  1.1000E-09  1.1000E-09  1.2000E-09  5.0000E-09   0.000       0.000       0.000       0.000       0.000    
  12   1.1000E-09  1.1000E-09  1.1000E-09  1.1000E-09  2.0000E-09   0.000       0.000       0.000       0.000       0.000    
  13   1.1000E-09  2.2000E-09  2.2000E-09  2.1000E-09  1.0000E-09   0.000       0.000       0.000       0.000       0.000    
  14   2.0000E-10  5.5000E-09  5.5000E-09  5.2000E-09  1.0000E-09   0.000       0.000       0.000       0.000       0.000    
  15    0.000      8.8000E-09  8.8000E-09   0.000       0.000       0.000       0.000       0.000       0.000       0.000    

                  ET RATE =  5.000000E-08

 USING ET EXTINCTION DEPTH FROM PREVIOUS STRESS PERIOD. CURRENT PERIOD IS:      18

 USING EXTINCTION WATER CONTENT FROM PREVIOUS STRESS PERIOD. CURRENT PERIOD IS:      18

 USING AIR ENTRY PRESSURE FROM PREVIOUS STRESS PERIOD. CURRENT PERIOD IS:      18

 USING ROOT PRESSURE HEAD FROM PREVIOUS STRESS PERIOD. CURRENT PERIOD IS:      18

 USING ROOT ACTIVITY FROM PREVIOUS STRESS PERIOD. CURRENT PERIOD IS:      18

 PROCESSING AG STRESS PERIOD DATA

 READING AG STRESS PERIOD DATA

 READING IRRIGATION SEGMENT

 READING IRRIGATION WELL

 READING SUPPLEMENTAL WELL

 END PROCESSING AG STRESS PERIOD DATA OPTIONS
 
 SOLVING FOR HEAD 
                                                   Max.-Head-Change                         Max.-Flux-Residual
  Residual-Control   Outer-Iter.   Inner-Iter.     Column Row Layer    Maximum-Head-Change  Column Row Layer    Maximum-Flux-Residual          L2-NORM 
          0                 1           2             3   13     1      -0.3313265950E-02       3   13    1        -0.1960833174E+00      0.4662101682E+00
          0                 2           2             2   13     1      -0.1119626929E-02       2   13    1        -0.6325664361E-01      0.1155184251E+00
          0                 3           2             4   13     1      -0.5717865075E-03       4   13    1        -0.3410610965E-01      0.5942241538E-01
          0                 4           2             2   13     1      -0.1480837441E-03       4   13    1        -0.8664097183E-02      0.1520596299E-01
          0                 5           1             2   13     1      -0.3678006947E-04       4   13    1        -0.2184011420E-02      0.3807531160E-02

    ------------------------------------------------
       NWT REQUIRED            5 OUTER ITERATIONS 
       AND A TOTAL OF          9 INNER ITERATIONS.
    ------------------------------------------------

 NO OUTPUT CONTROL FOR STRESS PERIOD   18   TIME STEP    1
 
 SOLVING FOR HEAD 
                                                   Max.-Head-Change                         Max.-Flux-Residual
  Residual-Control   Outer-Iter.   Inner-Iter.     Column Row Layer    Maximum-Head-Change  Column Row Layer    Maximum-Flux-Residual          L2-NORM 
          0                 1           2             1    1     1       0.3128309975E-02       1    1    1         0.1623578992E+00      0.4294918418E+00
          0                 2           2             2   13     1      -0.1155992678E-02       4   13    1        -0.6627222551E-01      0.1209219861E+00
          0                 3           2             2   13     1      -0.5630194320E-03       4   13    1        -0.3356725827E-01      0.5865991461E-01
          0                 4           2             2   13     1      -0.2806022358E-03       4   13    1        -0.1658764274E-01      0.2896069517E-01
          0                 5           2             2   13     1      -0.1407983225E-03       4   13    1        -0.8335698957E-02      0.1455367725E-01
          0                 6           1             2   13     1      -0.7059993393E-04       4   13    1        -0.4178914699E-02      0.7295822223E-02

    ------------------------------------------------
       NWT REQUIRED            6 OUTER ITERATIONS 
       AND A TOTAL OF         11 INNER ITERATIONS.
    ------------------------------------------------

 NO OUTPUT CONTROL FOR STRESS PERIOD   18   TIME STEP    2
 
 SOLVING FOR HEAD 
                                                   Max.-Head-Change                         Max.-Flux-Residual
  Residual-Control   Outer-Iter.   Inner-Iter.     Column Row Layer    Maximum-Head-Change  Column Row Layer    Maximum-Flux-Residual          L2-NORM 
          0                 1           2             1    1     1       0.3125827983E-02       1    1    1         0.1622287973E+00      0.3996735083E+00
          0                 2           2             2   13     1      -0.1192141158E-02       4   13    1        -0.7029480118E-01      0.1260956547E+00
          0                 3           2             2   13     1      -0.5619595727E-03       4   13    1        -0.3331085675E-01      0.5836964008E-01
          0                 4           2             2   13     1      -0.2791419887E-03       4   13    1        -0.1652371368E-01      0.2882814620E-01
          0                 5           2             2   13     1      -0.1405151367E-03       4   13    1        -0.8319634486E-02      0.1452600915E-01
          0                 6           1             2   13     1      -0.7074306586E-04       4   13    1        -0.4186347076E-02      0.7309017820E-02

    ------------------------------------------------
       NWT REQUIRED            6 OUTER ITERATIONS 
       AND A TOTAL OF         11 INNER ITERATIONS.
    ------------------------------------------------

 NO OUTPUT CONTROL FOR STRESS PERIOD   18   TIME STEP    3
 
 SOLVING FOR HEAD 
                                                   Max.-Head-Change                         Max.-Flux-Residual
  Residual-Control   Outer-Iter.   Inner-Iter.     Column Row Layer    Maximum-Head-Change  Column Row Layer    Maximum-Flux-Residual          L2-NORM 
          0                 1           2             1    1     1       0.3123331411E-02       1    1    1         0.1620989378E+00      0.3780620541E+00
          0                 2           2             4   13     1      -0.1234690317E-02       4   13    1        -0.7369313380E-01      0.1305822137E+00
          0                 3           2             2   13     1      -0.5597599957E-03       4   13    1        -0.3302237448E-01      0.5805571404E-01
          0                 4           2             2   13     1      -0.2800845530E-03       4   13    1        -0.1659620980E-01      0.2896142988E-01
          0                 5           2             2   13     1      -0.1411207534E-03       4   13    1        -0.8354106751E-02      0.1459684357E-01
          0                 6           1             2   13     1      -0.7083854250E-04       4   13    1        -0.4193665167E-02      0.7325636166E-02

    ------------------------------------------------
       NWT REQUIRED            6 OUTER ITERATIONS 
       AND A TOTAL OF         11 INNER ITERATIONS.
    ------------------------------------------------

 NO OUTPUT CONTROL FOR STRESS PERIOD   18   TIME STEP    4
 
 SOLVING FOR HEAD 
                                                   Max.-Head-Change                         Max.-Flux-Residual
  Residual-Control   Outer-Iter.   Inner-Iter.     Column Row Layer    Maximum-Head-Change  Column Row Layer    Maximum-Flux-Residual          L2-NORM 
          0                 1           2             1    1     1       0.3120842808E-02       1    1    1         0.1619694947E+00      0.3632798071E+00
          0                 2           2             4   13     1      -0.1284108299E-02       4   13    1        -0.7664888867E-01      0.1346119331E+00
          0                 3           2             2   13     1      -0.5577573773E-03       4   13    1        -0.3277567620E-01      0.5772872847E-01
          0                 4           2             2   13     1      -0.2808818408E-03       4   13    1        -0.1665633901E-01      0.2905474561E-01
          0                 5           2             2   13     1      -0.1408372000E-03       4   13    1        -0.8335065560E-02      0.1456491499E-01
          0                 6           1             2   13     1      -0.7121659059E-04       4   13    1        -0.4216053257E-02      0.7364592454E-02

    ------------------------------------------------
       NWT REQUIRED            6 OUTER ITERATIONS 
       AND A TOTAL OF         11 INNER ITERATIONS.
    ------------------------------------------------

 NO OUTPUT CONTROL FOR STRESS PERIOD   18   TIME STEP    5
 
 SOLVING FOR HEAD 
                                                   Max.-Head-Change                         Max.-Flux-Residual
  Residual-Control   Outer-Iter.   Inner-Iter.     Column Row Layer    Maximum-Head-Change  Column Row Layer    Maximum-Flux-Residual          L2-NORM 
          0                 1           2             1    1     1       0.3118362183E-02       1    1    1         0.1618404647E+00      0.3539921427E+00
          0                 2           2             4   13     1      -0.1326164868E-02       4   13    1        -0.7916375649E-01      0.1381305031E+00
          0                 3           2             2   13     1      -0.5562421676E-03       4   13    1        -0.3258274003E-01      0.5747616388E-01
          0                 4           2             2   13     1      -0.2846287331E-03       4   13    1        -0.1688907227E-01      0.2945017307E-01
          0                 5           2             2   13     1      -0.1420094457E-03       4   13    1        -0.8404636456E-02      0.1468482982E-01
          0                 6           1             2   13     1      -0.7139853024E-04       4   13    1        -0.4223720860E-02      0.7382267602E-02

    ------------------------------------------------
       NWT REQUIRED            6 OUTER ITERATIONS 
       AND A TOTAL OF         11 INNER ITERATIONS.
    ------------------------------------------------

 NO OUTPUT CONTROL FOR STRESS PERIOD   18   TIME STEP    6
 
 SOLVING FOR HEAD 
                                                   Max.-Head-Change                         Max.-Flux-Residual
  Residual-Control   Outer-Iter.   Inner-Iter.     Column Row Layer    Maximum-Head-Change  Column Row Layer    Maximum-Flux-Residual          L2-NORM 
          0                 1           2             1    1     1       0.3115912037E-02       1    1    1         0.1617130209E+00      0.3489513712E+00
          0                 2           2             4   13     1      -0.1327370959E-02       4   13    1        -0.8146031133E-01      0.1414668576E+00
          0                 3           2             4   13     1      -0.5642649685E-03       4   13    1        -0.3462201990E-01      0.5821557672E-01
          0                 4           2             4   13     1      -0.2885941967E-03       4   13    1        -0.1770325800E-01      0.2992876628E-01
          0                 5           2             4   13     1      -0.1443634400E-03       4   13    1        -0.8855368829E-02      0.1494290433E-01
          0                 6           1             4   13     1      -0.7282059781E-04       4   13    1        -0.4466645441E-02      0.7541972620E-02

    ------------------------------------------------
       NWT REQUIRED            6 OUTER ITERATIONS 
       AND A TOTAL OF         11 INNER ITERATIONS.
    ------------------------------------------------

 NO OUTPUT CONTROL FOR STRESS PERIOD   18   TIME STEP    7
 
 SOLVING FOR HEAD 
                                                   Max.-Head-Change                         Max.-Flux-Residual
  Residual-Control   Outer-Iter.   Inner-Iter.     Column Row Layer    Maximum-Head-Change  Column Row Layer    Maximum-Flux-Residual          L2-NORM 
          0                 1           2             1    1     1       0.3113447169E-02       1    1    1         0.1615848123E+00      0.3470949466E+00
          0                 2           2             4   13     1      -0.1359018666E-02       4   13    1        -0.8340444142E-01      0.1443661893E+00
          0                 3           2             4   13     1      -0.5594601988E-03       4   13    1        -0.3432769555E-01      0.5768493799E-01
          0                 4           2             4   13     1      -0.2915079295E-03       4   13    1        -0.1788178701E-01      0.3025078776E-01
          0                 5           2             4   13     1      -0.1454055020E-03       4   13    1        -0.8919307034E-02      0.1505053713E-01
          0                 6           1             4   13     1      -0.7337100144E-04       4   13    1        -0.4500395162E-02      0.7600522799E-02

    ------------------------------------------------
       NWT REQUIRED            6 OUTER ITERATIONS 
       AND A TOTAL OF         11 INNER ITERATIONS.
    ------------------------------------------------

 NO OUTPUT CONTROL FOR STRESS PERIOD   18   TIME STEP    8
 
 SOLVING FOR HEAD 
                                                   Max.-Head-Change                         Max.-Flux-Residual
  Residual-Control   Outer-Iter.   Inner-Iter.     Column Row Layer    Maximum-Head-Change  Column Row Layer    Maximum-Flux-Residual          L2-NORM 
          0                 1           2             1    1     1       0.3110990179E-02       1    1    1         0.1614570129E+00      0.3475183842E+00
          0                 2           2             4   13     1      -0.1386616370E-02       4   13    1        -0.8509918552E-01      0.1469671761E+00
          0                 3           2             4   13     1      -0.5586579267E-03       4   13    1        -0.3425764267E-01      0.5868007232E-01
          0                 4           2             4   13     1      -0.2918984021E-03       4   13    1        -0.1789890271E-01      0.3065662465E-01
          0                 5           2             4   13     1      -0.1454982849E-03       4   13    1        -0.8921084383E-02      0.1526370928E-01
          0                 6           1             4   13     1      -0.7321197018E-04       4   13    1        -0.4488748197E-02      0.7683267906E-02

    ------------------------------------------------
       NWT REQUIRED            6 OUTER ITERATIONS 
       AND A TOTAL OF         11 INNER ITERATIONS.
    ------------------------------------------------

 NO OUTPUT CONTROL FOR STRESS PERIOD   18   TIME STEP    9
 
 SOLVING FOR HEAD 
                                                   Max.-Head-Change                         Max.-Flux-Residual
  Residual-Control   Outer-Iter.   Inner-Iter.     Column Row Layer    Maximum-Head-Change  Column Row Layer    Maximum-Flux-Residual          L2-NORM 
          0                 1           2             1    1     1       0.3108540992E-02       1    1    1         0.1613296220E+00      0.3495190275E+00
          0                 2           2             4   13     1      -0.1403397630E-02       4   13    1        -0.8612993243E-01      0.1485447402E+00
          0                 3           2             2   13     1      -0.5729291638E-03       4   13    1        -0.3445013002E-01      0.6026302884E-01
          0                 4           2             2   13     1      -0.2956447280E-03       4   13    1        -0.1801109345E-01      0.3126517923E-01
          0                 5           2             2   13     1      -0.1476503602E-03       4   13    1        -0.8975618901E-02      0.1559454853E-01
          0                 6           1             2   13     1      -0.7430705005E-04       4   13    1        -0.4518394771E-02      0.7849872280E-02

    ------------------------------------------------
       NWT REQUIRED            6 OUTER ITERATIONS 
       AND A TOTAL OF         11 INNER ITERATIONS.
    ------------------------------------------------

 NO OUTPUT CONTROL FOR STRESS PERIOD   18   TIME STEP   10
 
 SOLVING FOR HEAD 
                                                   Max.-Head-Change                         Max.-Flux-Residual
  Residual-Control   Outer-Iter.   Inner-Iter.     Column Row Layer    Maximum-Head-Change  Column Row Layer    Maximum-Flux-Residual          L2-NORM 
          0                 1           2             1    1     1       0.3106099617E-02       1    1    1         0.1612026357E+00      0.3525441089E+00
          0                 2           2             4   13     1      -0.1426172961E-02       4   13    1        -0.8752741148E-01      0.1508227218E+00
          0                 3           2             2   13     1      -0.5718798940E-03       4   13    1        -0.3435751868E-01      0.6011755681E-01
          0                 4           2             2   13     1      -0.2956319690E-03       4   13    1        -0.1801210470E-01      0.3126494757E-01
          0                 5           2             2   13     1      -0.1475704011E-03       4   13    1        -0.8967598525E-02      0.1558321951E-01
          0                 6           1             2   13     1      -0.7422084972E-04       4   13    1        -0.4513173770E-02      0.7840460849E-02

    ------------------------------------------------
       NWT REQUIRED            6 OUTER ITERATIONS 
       AND A TOTAL OF         11 INNER ITERATIONS.
    ------------------------------------------------

 NO OUTPUT CONTROL FOR STRESS PERIOD   18   TIME STEP   11
 
 SOLVING FOR HEAD 
                                                   Max.-Head-Change                         Max.-Flux-Residual
  Residual-Control   Outer-Iter.   Inner-Iter.     Column Row Layer    Maximum-Head-Change  Column Row Layer    Maximum-Flux-Residual          L2-NORM 
          0                 1           2             1    1     1       0.3103688591E-02       1    1    1         0.1610772275E+00      0.3562068059E+00
          0                 2           2             4   13     1      -0.1446126307E-02       4   13    1        -0.8875129192E-01      0.1528706040E+00
          0                 3           2             2   13     1      -0.5708898902E-03       4   13    1        -0.3428140300E-01      0.5998998622E-01
          0                 4           2             2   13     1      -0.2956579475E-03       4   13    1        -0.1800600628E-01      0.3126200304E-01
          0                 5           2             2   13     1      -0.1474689014E-03       4   13    1        -0.8960156466E-02      0.1557091357E-01
          0                 6           1             2   13     1      -0.7397523714E-04       4   13    1        -0.4496096653E-02      0.7812451676E-02

    ------------------------------------------------
       NWT REQUIRED            6 OUTER ITERATIONS 
       AND A TOTAL OF         11 INNER ITERATIONS.
    ------------------------------------------------

 NO OUTPUT CONTROL FOR STRESS PERIOD   18   TIME STEP   12
 
 SOLVING FOR HEAD 
                                                   Max.-Head-Change                         Max.-Flux-Residual
  Residual-Control   Outer-Iter.   Inner-Iter.     Column Row Layer    Maximum-Head-Change  Column Row Layer    Maximum-Flux-Residual          L2-NORM 
          0                 1           2             1    1     1       0.3101262644E-02       1    1    1         0.1609510467E+00      0.3602072261E+00
          0                 2           2             4   13     1      -0.1463256465E-02       4   13    1        -0.8980158162E-01      0.1546790756E+00
          0                 3           2             2   13     1      -0.5700064612E-03       4   13    1        -0.3421538691E-01      0.5987692955E-01
          0                 4           2             2   13     1      -0.2957159323E-03       4   13    1        -0.1800540174E-01      0.3126542717E-01
          0                 5           2             2   13     1      -0.1474379872E-03       4   13    1        -0.8956011290E-02      0.1556486993E-01
          0                 6           1             2   13     1      -0.7393821835E-04       4   13    1        -0.4492242326E-02      0.7806961187E-02

    ------------------------------------------------
       NWT REQUIRED            6 OUTER ITERATIONS 
       AND A TOTAL OF         11 INNER ITERATIONS.
    ------------------------------------------------

 NO OUTPUT CONTROL FOR STRESS PERIOD   18   TIME STEP   13
 
 SOLVING FOR HEAD 
                                                   Max.-Head-Change                         Max.-Flux-Residual
  Residual-Control   Outer-Iter.   Inner-Iter.     Column Row Layer    Maximum-Head-Change  Column Row Layer    Maximum-Flux-Residual          L2-NORM 
          0                 1           2             1    1     1       0.3098844412E-02       1    1    1         0.1608252654E+00      0.3643485998E+00
          0                 2           2             4   13     1      -0.1478429364E-02       4   13    1        -0.9073146884E-01      0.1563252306E+00
          0                 3           2             2   13     1      -0.5689197131E-03       4   13    1        -0.3413882528E-01      0.5974408874E-01
          0                 4           2             2   13     1      -0.2904590448E-03       4   13    1        -0.1768123468E-01      0.3070396000E-01
          0                 5           2             2   13     1      -0.1464767764E-03       4   13    1        -0.8895698019E-02      0.1546303897E-01
          0                 6           1             2   13     1      -0.7384382044E-04       4   13    1        -0.4485736031E-02      0.7796303665E-02

    ------------------------------------------------
       NWT REQUIRED            6 OUTER ITERATIONS 
       AND A TOTAL OF         11 INNER ITERATIONS.
    ------------------------------------------------

 NO OUTPUT CONTROL FOR STRESS PERIOD   18   TIME STEP   14
 
 SOLVING FOR HEAD 
                                                   Max.-Head-Change                         Max.-Flux-Residual
  Residual-Control   Outer-Iter.   Inner-Iter.     Column Row Layer    Maximum-Head-Change  Column Row Layer    Maximum-Flux-Residual          L2-NORM 
          0                 1           2             1    1     1       0.3096433846E-02       1    1    1         0.1606998840E+00      0.3684522488E+00
          0                 2           2             4   13     1      -0.1491040765E-02       4   13    1        -0.9150399855E-01      0.1577374623E+00
          0                 3           2             2   13     1      -0.5682206697E-03       4   13    1        -0.3409021952E-01      0.5965717055E-01
          0                 4           2             2   13     1      -0.2907811278E-03       4   13    1        -0.1769677278E-01      0.3073565714E-01
          0                 5           2             2   13     1      -0.1465736819E-03       4   13    1        -0.8899035010E-02      0.1546981831E-01
          0                 6           1             2   13     1      -0.7388552869E-04       4   13    1        -0.4487679703E-02      0.7800287866E-02

    ------------------------------------------------
       NWT REQUIRED            6 OUTER ITERATIONS 
       AND A TOTAL OF         11 INNER ITERATIONS.
    ------------------------------------------------

 NO OUTPUT CONTROL FOR STRESS PERIOD   18   TIME STEP   15
 
 SOLVING FOR HEAD 
                                                   Max.-Head-Change                         Max.-Flux-Residual
  Residual-Control   Outer-Iter.   Inner-Iter.     Column Row Layer    Maximum-Head-Change  Column Row Layer    Maximum-Flux-Residual          L2-NORM 
          0                 1           2             1    1     1       0.3094030931E-02       1    1    1         0.1605749002E+00      0.3724584355E+00
          0                 2           2             4   13     1      -0.1498785427E-02       4   13    1        -0.9197791867E-01      0.1586678098E+00
          0                 3           2             2   13     1      -0.5693089904E-03       4   13    1        -0.3415474138E-01      0.5976517695E-01
          0                 4           2             2   13     1      -0.2918009564E-03       4   13    1        -0.1775432731E-01      0.3083934759E-01
          0                 5           2             2   13     1      -0.1470379658E-03       4   13    1        -0.8924964852E-02      0.1551751749E-01
          0                 6           1             2   13     1      -0.7392597142E-04       4   13    1        -0.4488685133E-02      0.7802533582E-02

    ------------------------------------------------
       NWT REQUIRED            6 OUTER ITERATIONS 
       AND A TOTAL OF         11 INNER ITERATIONS.
    ------------------------------------------------

 NO OUTPUT CONTROL FOR STRESS PERIOD   18   TIME STEP   16
 
 SOLVING FOR HEAD 
                                                   Max.-Head-Change                         Max.-Flux-Residual
  Residual-Control   Outer-Iter.   Inner-Iter.     Column Row Layer    Maximum-Head-Change  Column Row Layer    Maximum-Flux-Residual          L2-NORM 
          0                 1           2             1    1     1       0.3091635617E-02       1    1    1         0.1604503130E+00      0.3763018033E+00
          0                 2           2             4   13     1      -0.1512148310E-02       4   13    1        -0.9279604366E-01      0.1602025525E+00
          0                 3           2             2   13     1      -0.5667583999E-03       4   13    1        -0.3399716774E-01      0.5948480752E-01
          0                 4           2             2   13     1      -0.2913217305E-03       4   13    1        -0.1772084268E-01      0.3078554729E-01
          0                 5           2             2   13     1      -0.1467203991E-03       4   13    1        -0.8903569933E-02      0.1548190346E-01
          0                 6           1             2   13     1      -0.7378624435E-04       4   13    1        -0.4475052941E-02      0.7675707725E-02

    ------------------------------------------------
       NWT REQUIRED            6 OUTER ITERATIONS 
       AND A TOTAL OF         11 INNER ITERATIONS.
    ------------------------------------------------

 NO OUTPUT CONTROL FOR STRESS PERIOD   18   TIME STEP   17
 
 SOLVING FOR HEAD 
                                                   Max.-Head-Change                         Max.-Flux-Residual
  Residual-Control   Outer-Iter.   Inner-Iter.     Column Row Layer    Maximum-Head-Change  Column Row Layer    Maximum-Flux-Residual          L2-NORM 
          0                 1           2             1    1     1       0.3089247866E-02       1    1    1         0.1603261200E+00      0.3799385260E+00
          0                 2           2             4   13     1      -0.1524290466E-02       4   13    1        -0.9353921889E-01      0.1616215401E+00
          0                 3           2             2   13     1      -0.5642709306E-03       4   13    1        -0.3384585727E-01      0.5959533440E-01
          0                 4           2             2   13     1      -0.2906203474E-03       4   13    1        -0.1767178104E-01      0.3083081991E-01
          0                 5           2             2   13     1      -0.1457983005E-03       4   13    1        -0.8847567902E-02      0.1545444201E-01
          0                 6           1             2   13     1      -0.7352849127E-04       4   13    1        -0.4462087130E-02      0.7792282389E-02

    ------------------------------------------------
       NWT REQUIRED            6 OUTER ITERATIONS 
       AND A TOTAL OF         11 INNER ITERATIONS.
    ------------------------------------------------

 NO OUTPUT CONTROL FOR STRESS PERIOD   18   TIME STEP   18
 
 SOLVING FOR HEAD 
                                                   Max.-Head-Change                         Max.-Flux-Residual
  Residual-Control   Outer-Iter.   Inner-Iter.     Column Row Layer    Maximum-Head-Change  Column Row Layer    Maximum-Flux-Residual          L2-NORM 
          0                 1           2             1    1     1       0.3086867653E-02       1    1    1         0.1602023190E+00      0.3833629191E+00
          0                 2           2             4   13     1      -0.1528142516E-02       4   13    1        -0.9377404229E-01      0.1621866786E+00
          0                 3           2             2   13     1      -0.5656749549E-03       4   13    1        -0.3393438014E-01      0.5974430351E-01
          0                 4           2             2   13     1      -0.2912182233E-03       4   13    1        -0.1770456215E-01      0.3089165031E-01
          0                 5           2             2   13     1      -0.1466338538E-03       4   13    1        -0.8895364927E-02      0.1553926423E-01
          0                 6           1             2   13     1      -0.7347664329E-04       4   13    1        -0.4459552280E-02      0.7788373993E-02

    ------------------------------------------------
       NWT REQUIRED            6 OUTER ITERATIONS 
       AND A TOTAL OF         11 INNER ITERATIONS.
    ------------------------------------------------

 NO OUTPUT CONTROL FOR STRESS PERIOD   18   TIME STEP   19
 
 SOLVING FOR HEAD 
                                                   Max.-Head-Change                         Max.-Flux-Residual
  Residual-Control   Outer-Iter.   Inner-Iter.     Column Row Layer    Maximum-Head-Change  Column Row Layer    Maximum-Flux-Residual          L2-NORM 
          0                 1           2             1    1     1       0.3084494965E-02       1    1    1         0.1600789090E+00      0.3865597423E+00
          0                 2           2             4   13     1      -0.1534877666E-02       4   13    1        -0.9418552204E-01      0.1630580698E+00
          0                 3           2             2   13     1      -0.5651258569E-03       4   13    1        -0.3390416605E-01      0.5968640020E-01
          0                 4           2             2   13     1      -0.2911609753E-03       4   13    1        -0.1769703226E-01      0.3088227064E-01
          0                 5           2             2   13     1      -0.1461153373E-03       4   13    1        -0.8861707580E-02      0.1548238344E-01
          0                 6           1             2   13     1      -0.7370535512E-04       4   13    1        -0.4470042232E-02      0.7809369085E-02

    ------------------------------------------------
       NWT REQUIRED            6 OUTER ITERATIONS 
       AND A TOTAL OF         11 INNER ITERATIONS.
    ------------------------------------------------

 NO OUTPUT CONTROL FOR STRESS PERIOD   18   TIME STEP   20
 
 SOLVING FOR HEAD 
                                                   Max.-Head-Change                         Max.-Flux-Residual
  Residual-Control   Outer-Iter.   Inner-Iter.     Column Row Layer    Maximum-Head-Change  Column Row Layer    Maximum-Flux-Residual          L2-NORM 
          0                 1           2             1    1     1       0.3082129753E-02       1    1    1         0.1599558890E+00      0.3895272210E+00
          0                 2           2             4   13     1      -0.1540826090E-02       4   13    1        -0.9454873424E-01      0.1638506108E+00
          0                 3           2             2   13     1      -0.5646094515E-03       4   13    1        -0.3387635046E-01      0.5963283353E-01
          0                 4           2             2   13     1      -0.2911326883E-03       4   13    1        -0.1769219907E-01      0.3087632893E-01
          0                 5           2             2   13     1      -0.1461104810E-03       4   13    1        -0.8859302878E-02      0.1547958929E-01
          0                 6           1             2   13     1      -0.7367817084E-04       4   13    1        -0.4469250874E-02      0.7807391049E-02

    ------------------------------------------------
       NWT REQUIRED            6 OUTER ITERATIONS 
       AND A TOTAL OF         11 INNER ITERATIONS.
    ------------------------------------------------

 NO OUTPUT CONTROL FOR STRESS PERIOD   18   TIME STEP   21
 
 SOLVING FOR HEAD 
                                                   Max.-Head-Change                         Max.-Flux-Residual
  Residual-Control   Outer-Iter.   Inner-Iter.     Column Row Layer    Maximum-Head-Change  Column Row Layer    Maximum-Flux-Residual          L2-NORM 
          0                 1           2             1    1     1       0.3079772003E-02       1    1    1         0.1598332567E+00      0.3922735563E+00
          0                 2           2             4   13     1      -0.1546110088E-02       4   13    1        -0.9487115420E-01      0.1645746659E+00
          0                 3           2             2   13     1      -0.5641316388E-03       4   13    1        -0.3385083946E-01      0.5958184165E-01
          0                 4           2             2   13     1      -0.2911357784E-03       4   13    1        -0.1768852191E-01      0.3087286771E-01
          0                 5           2             2   13     1      -0.1460639667E-03       4   13    1        -0.8855493281E-02      0.1547416371E-01
          0                 6           1             2   13     1      -0.7367757367E-04       4   13    1        -0.4467589657E-02      0.7806025047E-02

    ------------------------------------------------
       NWT REQUIRED            6 OUTER ITERATIONS 
       AND A TOTAL OF         11 INNER ITERATIONS.
    ------------------------------------------------

 NO OUTPUT CONTROL FOR STRESS PERIOD   18   TIME STEP   22
 
 SOLVING FOR HEAD 
                                                   Max.-Head-Change                         Max.-Flux-Residual
  Residual-Control   Outer-Iter.   Inner-Iter.     Column Row Layer    Maximum-Head-Change  Column Row Layer    Maximum-Flux-Residual          L2-NORM 
          0                 1           2             1    1     1       0.3077421684E-02       1    1    1         0.1597110113E+00      0.3948095803E+00
          0                 2           2             4   13     1      -0.1550825341E-02       4   13    1        -0.9515872152E-01      0.1652373204E+00
          0                 3           2             2   13     1      -0.5636771344E-03       4   13    1        -0.3382288933E-01      0.5955989847E-01
          0                 4           2             2   13     1      -0.2910950678E-03       4   13    1        -0.1768183813E-01      0.3087479699E-01
          0                 5           2             2   13     1      -0.1460329892E-03       4   13    1        -0.8849863315E-02      0.1547376862E-01
          0                 6           1             2   13     1      -0.7364709463E-04       4   13    1        -0.4464363004E-02      0.7801744317E-02

    ------------------------------------------------
       NWT REQUIRED            6 OUTER ITERATIONS 
       AND A TOTAL OF         11 INNER ITERATIONS.
    ------------------------------------------------

 NO OUTPUT CONTROL FOR STRESS PERIOD   18   TIME STEP   23
 
 SOLVING FOR HEAD 
                                                   Max.-Head-Change                         Max.-Flux-Residual
  Residual-Control   Outer-Iter.   Inner-Iter.     Column Row Layer    Maximum-Head-Change  Column Row Layer    Maximum-Flux-Residual          L2-NORM 
          0                 1           2             1    1     1       0.3075078723E-02       1    1    1         0.1595891512E+00      0.3971393246E+00
          0                 2           2             4   13     1      -0.1555032990E-02       4   13    1        -0.9541515321E-01      0.1658445217E+00
          0                 3           2             2   13     1      -0.5632408594E-03       4   13    1        -0.3379593100E-01      0.5951229447E-01
          0                 4           2             2   13     1      -0.2910531630E-03       4   13    1        -0.1767674908E-01      0.3086695014E-01
          0                 5           2             2   13     1      -0.1459948493E-03       4   13    1        -0.8847682874E-02      0.1546932733E-01
          0                 6           1             2   13     1      -0.7342973623E-04       4   13    1        -0.4450496084E-02      0.7780147988E-02

    ------------------------------------------------
       NWT REQUIRED            6 OUTER ITERATIONS 
       AND A TOTAL OF         11 INNER ITERATIONS.
    ------------------------------------------------

 NO OUTPUT CONTROL FOR STRESS PERIOD   18   TIME STEP   24
 
 SOLVING FOR HEAD 
                                                   Max.-Head-Change                         Max.-Flux-Residual
  Residual-Control   Outer-Iter.   Inner-Iter.     Column Row Layer    Maximum-Head-Change  Column Row Layer    Maximum-Flux-Residual          L2-NORM 
          0                 1           2             1    1     1       0.3072743133E-02       1    1    1         0.1594676726E+00      0.3992815282E+00
          0                 2           2             4   13     1      -0.1558729614E-02       4   13    1        -0.9564025177E-01      0.1663984579E+00
          0                 3           2             2   13     1      -0.5628261797E-03       4   13    1        -0.3378181725E-01      0.5947482889E-01
          0                 4           2             2   13     1      -0.2909982961E-03       4   13    1        -0.1766690337E-01      0.3085684307E-01
          0                 5           2             2   13     1      -0.1459681114E-03       4   13    1        -0.8844710505E-02      0.1546460594E-01
          0                 6           1             2   13     1      -0.7338571153E-04       4   13    1        -0.4448583367E-02      0.7776332857E-02

    ------------------------------------------------
       NWT REQUIRED            6 OUTER ITERATIONS 
       AND A TOTAL OF         11 INNER ITERATIONS.
    ------------------------------------------------

 NO OUTPUT CONTROL FOR STRESS PERIOD   18   TIME STEP   25
 
 SOLVING FOR HEAD 
                                                   Max.-Head-Change                         Max.-Flux-Residual
  Residual-Control   Outer-Iter.   Inner-Iter.     Column Row Layer    Maximum-Head-Change  Column Row Layer    Maximum-Flux-Residual          L2-NORM 
          0                 1           2             1    1     1       0.3070414882E-02       1    1    1         0.1593465762E+00      0.4012431786E+00
          0                 2           2             4   13     1      -0.1557834134E-02       4   13    1        -0.9558389404E-01      0.1664646725E+00
          0                 3           2             2   13     1      -0.5646381050E-03       4   13    1        -0.3399345091E-01      0.5972439706E-01
          0                 4           2             2   13     1      -0.2918658996E-03       4   13    1        -0.1761436318E-01      0.3088792505E-01
          0                 5           2             2   13     1      -0.1464506838E-03       4   13    1        -0.8877437531E-02      0.1551579979E-01
          0                 6           1             2   13     1      -0.7359650719E-04       4   13    1        -0.4461595979E-02      0.7799917745E-02

    ------------------------------------------------
       NWT REQUIRED            6 OUTER ITERATIONS 
       AND A TOTAL OF         11 INNER ITERATIONS.
    ------------------------------------------------

 NO OUTPUT CONTROL FOR STRESS PERIOD   18   TIME STEP   26
 
 SOLVING FOR HEAD 
                                                   Max.-Head-Change                         Max.-Flux-Residual
  Residual-Control   Outer-Iter.   Inner-Iter.     Column Row Layer    Maximum-Head-Change  Column Row Layer    Maximum-Flux-Residual          L2-NORM 
          0                 1           2             1    1     1       0.3068071309E-02       1    1    1         0.1592246857E+00      0.4030383003E+00
          0                 2           2             4   13     1      -0.1560396406E-02       4   13    1        -0.9573950450E-01      0.1668891929E+00
          0                 3           2             2   13     1      -0.5645378363E-03       4   13    1        -0.3389716008E-01      0.5966190153E-01
          0                 4           2             2   13     1      -0.2918520832E-03       4   13    1        -0.1771304788E-01      0.3094288753E-01
          0                 5           2             2   13     1      -0.1464257256E-03       4   13    1        -0.8869386016E-02      0.1551080497E-01
          0                 6           1             2   13     1      -0.7365349218E-04       4   13    1        -0.4461167013E-02      0.7801383201E-02

    ------------------------------------------------
       NWT REQUIRED            6 OUTER ITERATIONS 
       AND A TOTAL OF         11 INNER ITERATIONS.
    ------------------------------------------------

 NO OUTPUT CONTROL FOR STRESS PERIOD   18   TIME STEP   27
 
 SOLVING FOR HEAD 
                                                   Max.-Head-Change                         Max.-Flux-Residual
  Residual-Control   Outer-Iter.   Inner-Iter.     Column Row Layer    Maximum-Head-Change  Column Row Layer    Maximum-Flux-Residual          L2-NORM 
          0                 1           2             1    1     1       0.3065757669E-02       1    1    1         0.1591043499E+00      0.4046879757E+00
          0                 2           2             4   13     1      -0.1562656858E-02       4   13    1        -0.9587666763E-01      0.1672757297E+00
          0                 3           2             2   13     1      -0.5644093998E-03       4   13    1        -0.3389620647E-01      0.5965228738E-01
          0                 4           2             2   13     1      -0.2918966733E-03       4   13    1        -0.1771166719E-01      0.3094421216E-01
          0                 5           2             2   13     1      -0.1464347908E-03       4   13    1        -0.8868862354E-02      0.1551073915E-01
          0                 6           1             2   13     1      -0.7363750525E-04       4   13    1        -0.4461759293E-02      0.7803320166E-02

    ------------------------------------------------
       NWT REQUIRED            6 OUTER ITERATIONS 
       AND A TOTAL OF         11 INNER ITERATIONS.
    ------------------------------------------------

 NO OUTPUT CONTROL FOR STRESS PERIOD   18   TIME STEP   28
 
 SOLVING FOR HEAD 
                                                   Max.-Head-Change                         Max.-Flux-Residual
  Residual-Control   Outer-Iter.   Inner-Iter.     Column Row Layer    Maximum-Head-Change  Column Row Layer    Maximum-Flux-Residual          L2-NORM 
          0                 1           2             1    1     1       0.3063451277E-02       1    1    1         0.1589843916E+00      0.4061871388E+00
          0                 2           2             4   13     1      -0.1564684553E-02       4   13    1        -0.9599956216E-01      0.1676326384E+00
          0                 3           2             2   13     1      -0.5642761702E-03       4   13    1        -0.3389257740E-01      0.5963986034E-01
          0                 4           2             2   13     1      -0.2919062417E-03       4   13    1        -0.1771076854E-01      0.3094456708E-01
          0                 5           2             2   13     1      -0.1464668977E-03       4   13    1        -0.8869350897E-02      0.1551235143E-01
          0                 6           1             2   13     1      -0.7346056987E-04       4   13    1        -0.4448833664E-02      0.7780269415E-02

    ------------------------------------------------
       NWT REQUIRED            6 OUTER ITERATIONS 
       AND A TOTAL OF         11 INNER ITERATIONS.
    ------------------------------------------------

 NO OUTPUT CONTROL FOR STRESS PERIOD   18   TIME STEP   29
 
 SOLVING FOR HEAD 
                                                   Max.-Head-Change                         Max.-Flux-Residual
  Residual-Control   Outer-Iter.   Inner-Iter.     Column Row Layer    Maximum-Head-Change  Column Row Layer    Maximum-Flux-Residual          L2-NORM 
          0                 1           2             1    1     1       0.3061152088E-02       1    1    1         0.1588648091E+00      0.4075609565E+00
          0                 2           2             4   13     1      -0.1566454028E-02       4   13    1        -0.9610669223E-01      0.1679561183E+00
          0                 3           2             2   13     1      -0.5641827118E-03       4   13    1        -0.3389259913E-01      0.5963284563E-01
          0                 4           2             2   13     1      -0.2919561652E-03       4   13    1        -0.1770968297E-01      0.3094597941E-01
          0                 5           2             2   13     1      -0.1464468859E-03       4   13    1        -0.8867834156E-02      0.1551055905E-01
          0                 6           1             2   13     1      -0.7345752486E-04       4   13    1        -0.4448555130E-02      0.7780860751E-02

    ------------------------------------------------
       NWT REQUIRED            6 OUTER ITERATIONS 
       AND A TOTAL OF         11 INNER ITERATIONS.
    ------------------------------------------------

 NO OUTPUT CONTROL FOR STRESS PERIOD   18   TIME STEP   30



 STREAM LISTING     PERIOD     18   STEP       30

 LAYER ROW COL. STREAM  RCH.  FLOW INTO     FLOW TO   FLOW OUT OF   OVRLND.     DIRECT     STREAM       STREAM     STREAM     STREAM   STREAMBED  STREAMBED
                SEG.NO.  NO.  STRM. RCH.    AQUIFER    STRM. RCH.    RUNOFF     PRECIP       ET          HEAD       DEPTH      WIDTH   CONDCTNC.   GRADIENT

   1    1    1     1     1    4.7251E+01  3.2762E-01   4.6923E+01  0.000E+00  0.000E+00  0.000E+00  1.09443E+03  1.381E+00  1.662E+01  7.477E-02  1.460E+00
   1    2    2     1     2    4.6923E+01  5.0760E-01   4.6416E+01  0.000E+00  0.000E+00  0.000E+00  1.08944E+03  1.379E+00  1.656E+01  1.159E-01  1.460E+00
   1    3    3     1     3    4.6416E+01  4.3310E-01   4.5982E+01  0.000E+00  0.000E+00  0.000E+00  1.08379E+03  1.376E+00  1.650E+01  9.898E-02  1.459E+00
   1    3    4     1     4    4.5982E+01  3.9899E-01   4.5583E+01  0.000E+00  0.000E+00  0.000E+00  1.07878E+03  1.373E+00  1.644E+01  9.124E-02  1.458E+00
   1    4    5     2     1    4.3583E+01  3.6514E-01   4.3218E+01  0.000E+00  0.000E+00  0.000E+00  1.07362E+03  1.681E+00  1.200E+01  7.800E-02  1.560E+00
   1    5    6     2     2    4.3218E+01  2.8043E-01   4.2938E+01  0.000E+00  0.000E+00  0.000E+00  1.06818E+03  1.674E+00  1.200E+01  6.000E-02  1.558E+00
   1    6    6     2     3    4.2938E+01  2.8003E-01   4.2658E+01  0.000E+00  0.000E+00  0.000E+00  1.06346E+03  1.667E+00  1.200E+01  6.000E-02  1.556E+00
   1    7    6     2     4    4.2658E+01  2.7964E-01   4.2378E+01  0.000E+00  0.000E+00  0.000E+00  1.05874E+03  1.661E+00  1.200E+01  6.000E-02  1.554E+00
   1    8    6     2     5    4.2378E+01  2.7925E-01   4.2099E+01  0.000E+00  0.000E+00  0.000E+00  1.05401E+03  1.654E+00  1.200E+01  6.000E-02  1.551E+00
   1    3    5     3     1    2.0000E+00  2.8252E-01   1.7175E+00  0.000E+00  0.000E+00  0.000E+00  1.07555E+03  1.909E+00  9.636E+00  7.227E-02  1.955E+00
   1    3    6     3     2    1.7175E+00  2.4905E-01   1.4684E+00  0.000E+00  0.000E+00  0.000E+00  1.07264E+03  1.727E+00  8.909E+00  6.682E-02  1.864E+00
   1    3    7     3     3    1.4684E+00  1.9718E-01   1.2712E+00  0.000E+00  0.000E+00  0.000E+00  1.06987E+03  1.555E+00  8.218E+00  5.547E-02  1.777E+00
   1    4    8     3     4    1.2712E+00  2.2567E-01   1.0456E+00  0.000E+00  0.000E+00  0.000E+00  1.06682E+03  1.364E+00  7.455E+00  6.709E-02  1.682E+00
   1    5    8     3     5    1.0456E+00  1.5790E-01   8.8768E-01  0.000E+00  0.000E+00  0.000E+00  1.06362E+03  1.164E+00  6.655E+00  4.991E-02  1.582E+00
   1    6    8     3     6    8.8768E-01  5.5980E-02   8.3170E-01  0.000E+00  0.000E+00  0.000E+00  1.06158E+03  1.036E+00  6.145E+00  1.844E-02  1.518E+00
   1    5   10     4     1    1.0000E+01  9.0919E-02   9.9091E+00  0.000E+00  0.000E+00  0.000E+00  1.07836E+03  6.368E-01  1.000E+01  2.500E-02  1.212E+00
   1    5    9     4     2    9.9091E+00  1.8158E-01   9.7275E+00  0.000E+00  0.000E+00  0.000E+00  1.07154E+03  6.315E-01  1.000E+01  5.000E-02  1.211E+00
   1    6    8     4     3    9.7275E+00  1.2689E-01   9.6006E+00  0.000E+00  0.000E+00  0.000E+00  1.06381E+03  6.256E-01  1.000E+01  3.500E-02  1.209E+00
   1    6    8     5     1    1.0432E+01  2.2686E-01   1.0205E+01  0.000E+00  0.000E+00  0.000E+00  1.05868E+03  6.790E-01  1.542E+01  6.166E-02  1.226E+00
   1    7    7     5     2    1.0205E+01  2.7894E-01   9.9265E+00  0.000E+00  0.000E+00  0.000E+00  1.05417E+03  6.732E-01  1.519E+01  7.594E-02  1.224E+00
   1    8    7     5     3    9.9265E+00  1.9221E-01   9.7343E+00  0.000E+00  0.000E+00  0.000E+00  1.04992E+03  6.676E-01  1.497E+01  5.241E-02  1.223E+00
   1    8    6     5     4    9.7343E+00  1.3577E-01   9.5985E+00  0.000E+00  0.000E+00  0.000E+00  1.04691E+03  6.637E-01  1.482E+01  3.706E-02  1.221E+00
   1    9    6     6     1    4.4486E+01  2.8349E-01   4.4203E+01  0.000E+00  0.000E+00  0.000E+00  1.04445E+03  1.725E+00  1.200E+01  6.000E-02  1.575E+00
   1   10    7     6     2    4.4203E+01  2.8310E-01   4.3919E+01  0.000E+00  0.000E+00  0.000E+00  1.03990E+03  1.718E+00  1.200E+01  6.000E-02  1.573E+00
   1   11    7     6     3    4.3919E+01  2.8270E-01   4.3637E+01  0.000E+00  0.000E+00  0.000E+00  1.03535E+03  1.712E+00  1.200E+01  6.000E-02  1.571E+00
   1   12    7     6     4    4.3637E+01  2.8230E-01   4.3354E+01  0.000E+00  0.000E+00  0.000E+00  1.03080E+03  1.705E+00  1.200E+01  6.000E-02  1.568E+00
   1   13    7     6     5    4.3354E+01  1.0726E-02   4.3344E+01  0.000E+00  0.000E+00  0.000E+00  1.02761E+03  1.702E+00  1.200E+01  2.400E-02  1.490E-01
   1   14    9     7     1    1.5000E+02  1.3361E+00   1.4866E+02  0.000E+00  0.000E+00  0.000E+00  1.03987E+03  2.288E+00  5.529E+01  5.593E-01  7.963E-01
   1   13    8     7     2    1.4866E+02  1.8173E+00   1.4685E+02  0.000E+00  0.000E+00  0.000E+00  1.03478E+03  2.279E+00  5.526E+01  6.148E-01  9.853E-01
   1   13    7     7     3    1.4685E+02  1.4108E+00   1.4544E+02  0.000E+00  0.000E+00  0.000E+00  1.02969E+03  2.271E+00  5.522E+01  5.585E-01  8.421E-01
   1   13    6     8     1    1.8878E+02  9.3059E-01   1.8785E+02  0.000E+00  0.000E+00  0.000E+00  1.02494E+03  3.068E+00  4.449E+01  4.534E-01  6.842E-01
   1   13    5     8     2    1.8785E+02  1.5196E-01   1.8770E+02  0.000E+00  0.000E+00  0.000E+00  1.01869E+03  3.065E+00  4.444E+01  4.529E-01  1.118E-01
   1   13    4     8     3    1.8770E+02 -2.5543E+00   1.9025E+02  0.000E+00  0.000E+00  0.000E+00  1.01245E+03  3.072E+00  4.455E+01  4.540E+00 -1.876E-01
   1   13    3     8     4    1.9025E+02 -3.6791E+00   1.9393E+02  0.000E+00  0.000E+00  0.000E+00  1.00622E+03  3.091E+00  4.482E+01  4.568E+00 -2.685E-01
   1   13    2     8     5    1.9393E+02 -2.5935E+00   1.9652E+02  0.000E+00  0.000E+00  0.000E+00  9.99985E+02  3.110E+00  4.510E+01  4.596E+00 -1.881E-01
   1   13    1     8     6    1.9652E+02 -2.0111E+00   1.9853E+02  0.000E+00  0.000E+00  0.000E+00  9.94999E+02  3.124E+00  4.530E+01  2.769E+00 -2.421E-01
   1    8    6     9     1    7.2114E+00  0.0000E+00   7.2114E+00  0.000E+00  0.000E+00  0.000E+00  1.08059E+03  1.844E+00  4.000E+00  0.000E+00  1.615E+00
   1    8    5     9     2    7.2114E+00  0.0000E+00   7.2114E+00  0.000E+00  0.000E+00  0.000E+00  1.08009E+03  1.844E+00  4.000E+00  0.000E+00  1.615E+00





UNSATURATED ZONE PACKAGE VOLUMETRIC BUDGET FOR  TIME STEP    30 STRESS PERIOD   18
  ------------------------------------------------------------------------------



     CUMULATIVE VOLUMES      L**3       RATES FOR THIS TIME STEP      L**3/T
     ------------------                 ------------------------

           IN:                                      IN:
           ---                                      ---
        INFILTRATION =   624131176.7981          INFILTRATION =          11.6190

          OUT:                                     OUT:
          ----                                     ----
              UZF ET =   566002963.3824                UZF ET =          11.5522
        UZF RECHARGE =      654716.9165          UZF RECHARGE =       0.0000E+00

            IN - OUT =    57473496.4991              IN - OUT =       6.6769E-02

          STORAGE:                                 STORAGE:
          --------                                 --------
      STORAGE CHANGE =    57474091.0194        STORAGE CHANGE =       6.6770E-02

 PERCENT DISCREPANCY IS DIFFERENCE BETWEEN IN-OUT MINUS CHANGE IN STORAGE
 DIVIDED BY THE AVERAGE OF IN AND OUT TIMES 100

 PERCENT DISCREPANCY =          -0.00     PERCENT DISCREPANCY =           0.00






1
  VOLUMETRIC BUDGET FOR AGRICULTURAL FIELDS AT TIME STEP   30, STRESS PERIOD  18
  ------------------------------------------------------------------------------

     CUMULATIVE VOLUMES      L**3       RATES FOR THIS TIME STEP      L**3/T
     ------------------                 ------------------------

           IN:                                      IN:
           ---                                      ---
               AG WELLS  =    44249552.0000                 AG WELLS  =           0.0000
      DIVERSION SEGMENTS =   382741376.0000        DIVERSION SEGMENTS =           7.2114
           GW IRRIGATION =           0.0000             GW IRRIGATION =           0.0000
           SW IRRIGATION =           0.0000             SW IRRIGATION =           0.0000
        SYSTEM LOSSES GW =           0.0000          SYSTEM LOSSES GW =           0.0000
        SYSTEM LOSSES SW =           0.0000          SYSTEM LOSSES SW =           0.0000

                TOTAL IN =   426990912.0000                  TOTAL IN =           7.2114

          OUT:                                     OUT:
          ----                                     ----
               AG WELLS  =           0.0000                 AG WELLS  =           0.0000
      DIVERSION SEGMENTS =           0.0000        DIVERSION SEGMENTS =           0.0000
           GW IRRIGATION =    44249552.0000             GW IRRIGATION =           0.0000
           SW IRRIGATION =   382749216.0000             SW IRRIGATION =           7.2115
        SYSTEM LOSSES GW =           0.0000          SYSTEM LOSSES GW =           0.0000
        SYSTEM LOSSES SW =           0.0000          SYSTEM LOSSES SW =           0.0000

               TOTAL OUT =   426998784.0000                 TOTAL OUT =           7.2115

                IN - OUT =       -7872.0000                  IN - OUT =      -1.4353E-04

     PERCENT DISCREPANCY =          -0.00         PERCENT DISCREPANCY =          -0.00



1
  VOLUMETRIC BUDGET FOR ENTIRE MODEL AT END OF TIME STEP   30, STRESS PERIOD  18
  ------------------------------------------------------------------------------

     CUMULATIVE VOLUMES      L**3       RATES FOR THIS TIME STEP      L**3/T
     ------------------                 ------------------------

           IN:                                      IN:
           ---                                      ---
             STORAGE     =    90457896.0000               STORAGE     =           0.3996
       CONSTANT HEAD     =           0.0000         CONSTANT HEAD     =           0.0000
     HEAD DEP BOUNDS     =    12800508.0000       HEAD DEP BOUNDS     =           0.2858
      STREAM LEAKAGE     =   538554240.0000        STREAM LEAKAGE     =          12.3424
        UZF RECHARGE     =      654716.8125          UZF RECHARGE     =           0.0000
               GW ET     =           0.0000                 GW ET     =           0.0000
     SURFACE LEAKAGE     =           0.0000       SURFACE LEAKAGE     =           0.0000
           AG WELLS      =           0.0000             AG WELLS      =           0.0000

                TOTAL IN =   642467328.0000                  TOTAL IN =          13.0278

          OUT:                                     OUT:
          ----                                     ----
             STORAGE     =    99768312.0000               STORAGE     =           1.8190
       CONSTANT HEAD     =           0.0000         CONSTANT HEAD     =           0.0000
     HEAD DEP BOUNDS     =    13047406.0000       HEAD DEP BOUNDS     =           0.2935
      STREAM LEAKAGE     =   483145824.0000        STREAM LEAKAGE     =          10.8380
        UZF RECHARGE     =           0.0000          UZF RECHARGE     =           0.0000
               GW ET     =     2235816.7500                 GW ET     =       7.6080E-02
     SURFACE LEAKAGE     =           0.0000       SURFACE LEAKAGE     =           0.0000
           AG WELLS      =    44249552.0000             AG WELLS      =           0.0000

               TOTAL OUT =   642446912.0000                 TOTAL OUT =          13.0265

                IN - OUT =       20416.0000                  IN - OUT =       1.2484E-03

     PERCENT DISCREPANCY =           0.00         PERCENT DISCREPANCY =           0.01






         TIME SUMMARY AT END OF TIME STEP   30 IN STRESS PERIOD   18
                    SECONDS     MINUTES      HOURS       DAYS        YEARS
                    -----------------------------------------------------------
   TIME STEP LENGTH  87667.      1461.1      24.352      1.0147     2.77799E-03
 STRESS PERIOD TIME 2.63000E+06  43833.      730.56      30.440     8.33397E-02
         TOTAL TIME 4.47965E+07 7.46608E+05  12443.      518.48      1.4195    
1
1
                            STRESS PERIOD NO.   19, LENGTH =   2630000.    
                            -----------------------------------------------

                              NUMBER OF TIME STEPS =    30

                               MULTIPLIER FOR DELT =     1.000

                            INITIAL TIME STEP SIZE =   87666.66    

 REUSING NON-PARAMETER GHB CELLS FROM LAST STRESS PERIOD

      2 GHB CELLS

 REUSING STREAM SEGMENT DATA FROM LAST STRESS PERIOD



            AREAL INFILTRATION RATE
 READING ON UNIT   19 WITH FORMAT: (10F4.0)            

            1           2           3           4           5           6           7           8           9          10
 ........................................................................................................................
   1   1.2000E-09   0.000       0.000       0.000       0.000       0.000       0.000       0.000       0.000       0.000    
   2   2.1000E-09  2.0000E-09  8.0000E-10  8.5000E-09   0.000       0.000       0.000       0.000       0.000       0.000    
   3   5.0000E-10  1.1000E-09  8.8000E-09  5.5000E-09   0.000       0.000       0.000       0.000       0.000       0.000    
   4   8.5000E-09  1.1000E-09  1.1000E-09  1.1000E-09  2.0000E-09   0.000       0.000       0.000       0.000       0.000    
   5   8.5000E-09  1.1000E-09  1.1000E-09  1.1000E-09  1.1000E-09   0.000       0.000       0.000       0.000       0.000    
   6   8.5000E-09  5.2000E-09  2.1000E-09  1.1000E-09  1.5000E-09   0.000       0.000       0.000       0.000       0.000    
   7   8.5000E-09  5.2000E-09  2.1000E-09  1.2000E-09  2.0000E-09   0.000       0.000       0.000       0.000       0.000    
   8   5.0000E-10  5.2000E-09  2.1000E-09  1.2000E-09  5.0000E-09   0.000       0.000       0.000       0.000       0.000    
   9   5.0000E-10  5.2000E-09  2.1000E-09  1.2000E-09  5.0000E-09   0.000       0.000       0.000       0.000       0.000    
  10   5.0000E-10  5.2000E-09  2.1000E-09  1.2000E-09  5.8000E-09   0.000       0.000       0.000       0.000       0.000    
  11   1.0000E-10  1.1000E-09  1.1000E-09  1.2000E-09  5.0000E-09   0.000       0.000       0.000       0.000       0.000    
  12   1.1000E-09  1.1000E-09  1.1000E-09  1.1000E-09  2.0000E-09   0.000       0.000       0.000       0.000       0.000    
  13   1.1000E-09  2.2000E-09  2.2000E-09  2.1000E-09  1.0000E-09   0.000       0.000       0.000       0.000       0.000    
  14   2.0000E-10  5.5000E-09  5.5000E-09  5.2000E-09  1.0000E-09   0.000       0.000       0.000       0.000       0.000    
  15    0.000      8.8000E-09  8.8000E-09   0.000       0.000       0.000       0.000       0.000       0.000       0.000    

                  ET RATE =  1.500000E-07

 USING ET EXTINCTION DEPTH FROM PREVIOUS STRESS PERIOD. CURRENT PERIOD IS:      19

 USING EXTINCTION WATER CONTENT FROM PREVIOUS STRESS PERIOD. CURRENT PERIOD IS:      19

 USING AIR ENTRY PRESSURE FROM PREVIOUS STRESS PERIOD. CURRENT PERIOD IS:      19

 USING ROOT PRESSURE HEAD FROM PREVIOUS STRESS PERIOD. CURRENT PERIOD IS:      19

 USING ROOT ACTIVITY FROM PREVIOUS STRESS PERIOD. CURRENT PERIOD IS:      19

 PROCESSING AG STRESS PERIOD DATA

 READING AG STRESS PERIOD DATA

 READING IRRIGATION SEGMENT

 READING IRRIGATION WELL

 READING SUPPLEMENTAL WELL

 END PROCESSING AG STRESS PERIOD DATA OPTIONS
 
 SOLVING FOR HEAD 
                                                   Max.-Head-Change                         Max.-Flux-Residual
  Residual-Control   Outer-Iter.   Inner-Iter.     Column Row Layer    Maximum-Head-Change  Column Row Layer    Maximum-Flux-Residual          L2-NORM 
          0                 1           2             1    1     1       0.2837725846E-02       1    1    1         0.1472589592E+00      0.3200044877E+00
          0                 2           2             2   13     1      -0.4613946788E-02       4   13    1        -0.2777119346E+00      0.4834506674E+00
          0                 3           2             2   13     1      -0.1084597355E-02       4   13    1        -0.6526910719E-01      0.1111801867E+00
          0                 4           2             2   13     1      -0.4678106588E-03       4   13    1        -0.2824523990E-01      0.4887015737E-01
          0                 5           1             2   13     1      -0.7514874865E-04       4   13    1        -0.4491174521E-02      0.7589462756E-02

    ------------------------------------------------
       NWT REQUIRED            5 OUTER ITERATIONS 
       AND A TOTAL OF          9 INNER ITERATIONS.
    ------------------------------------------------

 OUTPUT CONTROL FOR STRESS PERIOD   19   TIME STEP    1
    PRINT BUDGET
    SAVE BUDGET
 UBDSV1 SAVING "         STORAGE" ON UNIT 102 AT TIME STEP  1, STRESS PERIOD  19
 UBDSV2 SAVING "   CONSTANT HEAD" ON UNIT 102 AT TIME STEP  1, STRESS PERIOD  19
 UBDSV1 SAVING "FLOW RIGHT FACE " ON UNIT 102 AT TIME STEP  1, STRESS PERIOD  19
 UBDSV1 SAVING "FLOW FRONT FACE " ON UNIT 102 AT TIME STEP  1, STRESS PERIOD  19

  HEAD DEP BOUNDS   PERIOD   19   STEP     1
 BOUNDARY      1   LAYER   1   ROW    13   COL     1   RATE   -0.293415    
 BOUNDARY      2   LAYER   1   ROW    14   COL     9   RATE    0.285780    



 STREAM LISTING     PERIOD     19   STEP        1

 LAYER ROW COL. STREAM  RCH.  FLOW INTO     FLOW TO   FLOW OUT OF   OVRLND.     DIRECT     STREAM       STREAM     STREAM     STREAM   STREAMBED  STREAMBED
                SEG.NO.  NO.  STRM. RCH.    AQUIFER    STRM. RCH.    RUNOFF     PRECIP       ET          HEAD       DEPTH      WIDTH   CONDCTNC.   GRADIENT

   1    1    1     1     1    4.3652E+01  3.1614E-01   4.3336E+01  0.000E+00  0.000E+00  0.000E+00  1.09441E+03  1.357E+00  1.612E+01  7.255E-02  1.452E+00
   1    2    2     1     2    4.3336E+01  4.8972E-01   4.2846E+01  0.000E+00  0.000E+00  0.000E+00  1.08941E+03  1.355E+00  1.607E+01  1.125E-01  1.452E+00
   1    3    3     1     3    4.2846E+01  4.1777E-01   4.2428E+01  0.000E+00  0.000E+00  0.000E+00  1.08377E+03  1.351E+00  1.600E+01  9.601E-02  1.450E+00
   1    3    4     1     4    4.2428E+01  3.8480E-01   4.2043E+01  0.000E+00  0.000E+00  0.000E+00  1.07876E+03  1.349E+00  1.594E+01  8.849E-02  1.450E+00
   1    4    5     2     1    4.0043E+01  3.5862E-01   3.9685E+01  0.000E+00  0.000E+00  0.000E+00  1.07353E+03  1.598E+00  1.200E+01  7.800E-02  1.533E+00
   1    5    6     2     2    3.9685E+01  2.7540E-01   3.9409E+01  0.000E+00  0.000E+00  0.000E+00  1.06810E+03  1.590E+00  1.200E+01  6.000E-02  1.530E+00
   1    6    6     2     3    3.9409E+01  2.7500E-01   3.9134E+01  0.000E+00  0.000E+00  0.000E+00  1.06338E+03  1.583E+00  1.200E+01  6.000E-02  1.528E+00
   1    7    6     2     4    3.9134E+01  2.7461E-01   3.8860E+01  0.000E+00  0.000E+00  0.000E+00  1.05865E+03  1.577E+00  1.200E+01  6.000E-02  1.526E+00
   1    8    6     2     5    3.8860E+01  2.7421E-01   3.8585E+01  0.000E+00  0.000E+00  0.000E+00  1.05393E+03  1.570E+00  1.200E+01  6.000E-02  1.523E+00
   1    3    5     3     1    2.0000E+00  2.8252E-01   1.7175E+00  0.000E+00  0.000E+00  0.000E+00  1.07555E+03  1.909E+00  9.636E+00  7.227E-02  1.955E+00
   1    3    6     3     2    1.7175E+00  2.4905E-01   1.4684E+00  0.000E+00  0.000E+00  0.000E+00  1.07264E+03  1.727E+00  8.909E+00  6.682E-02  1.864E+00
   1    3    7     3     3    1.4684E+00  1.9718E-01   1.2712E+00  0.000E+00  0.000E+00  0.000E+00  1.06987E+03  1.555E+00  8.218E+00  5.547E-02  1.777E+00
   1    4    8     3     4    1.2712E+00  2.2567E-01   1.0456E+00  0.000E+00  0.000E+00  0.000E+00  1.06682E+03  1.364E+00  7.455E+00  6.709E-02  1.682E+00
   1    5    8     3     5    1.0456E+00  1.5790E-01   8.8768E-01  0.000E+00  0.000E+00  0.000E+00  1.06362E+03  1.164E+00  6.655E+00  4.991E-02  1.582E+00
   1    6    8     3     6    8.8768E-01  5.5980E-02   8.3170E-01  0.000E+00  0.000E+00  0.000E+00  1.06158E+03  1.036E+00  6.145E+00  1.844E-02  1.518E+00
   1    5   10     4     1    1.0000E+01  9.0919E-02   9.9091E+00  0.000E+00  0.000E+00  0.000E+00  1.07836E+03  6.368E-01  1.000E+01  2.500E-02  1.212E+00
   1    5    9     4     2    9.9091E+00  1.8158E-01   9.7275E+00  0.000E+00  0.000E+00  0.000E+00  1.07154E+03  6.315E-01  1.000E+01  5.000E-02  1.211E+00
   1    6    8     4     3    9.7275E+00  1.2689E-01   9.6006E+00  0.000E+00  0.000E+00  0.000E+00  1.06381E+03  6.256E-01  1.000E+01  3.500E-02  1.209E+00
   1    6    8     5     1    1.0432E+01  2.2686E-01   1.0205E+01  0.000E+00  0.000E+00  0.000E+00  1.05868E+03  6.790E-01  1.542E+01  6.166E-02  1.226E+00
   1    7    7     5     2    1.0205E+01  2.7894E-01   9.9265E+00  0.000E+00  0.000E+00  0.000E+00  1.05417E+03  6.732E-01  1.519E+01  7.594E-02  1.224E+00
   1    8    7     5     3    9.9265E+00  1.9221E-01   9.7343E+00  0.000E+00  0.000E+00  0.000E+00  1.04992E+03  6.676E-01  1.497E+01  5.241E-02  1.223E+00
   1    8    6     5     4    9.7343E+00  1.3577E-01   9.5985E+00  0.000E+00  0.000E+00  0.000E+00  1.04691E+03  6.637E-01  1.482E+01  3.706E-02  1.221E+00
   1    9    6     6     1    2.9775E+01  2.6137E-01   2.9514E+01  0.000E+00  0.000E+00  0.000E+00  1.04408E+03  1.356E+00  1.200E+01  6.000E-02  1.452E+00
   1   10    7     6     2    2.9514E+01  2.6094E-01   2.9253E+01  0.000E+00  0.000E+00  0.000E+00  1.03953E+03  1.349E+00  1.200E+01  6.000E-02  1.450E+00
   1   11    7     6     3    2.9253E+01  2.6051E-01   2.8993E+01  0.000E+00  0.000E+00  0.000E+00  1.03498E+03  1.342E+00  1.200E+01  6.000E-02  1.447E+00
   1   12    7     6     4    2.8993E+01  2.6008E-01   2.8733E+01  0.000E+00  0.000E+00  0.000E+00  1.03043E+03  1.335E+00  1.200E+01  6.000E-02  1.445E+00
   1   13    7     6     5    2.8733E+01  1.8346E-03   2.8731E+01  0.000E+00  0.000E+00  0.000E+00  1.02724E+03  1.331E+00  1.200E+01  2.400E-02  2.548E-02
   1   14    9     7     1    1.5000E+02  1.3361E+00   1.4866E+02  0.000E+00  0.000E+00  0.000E+00  1.03987E+03  2.288E+00  5.529E+01  5.593E-01  7.963E-01
   1   13    8     7     2    1.4866E+02  1.8172E+00   1.4685E+02  0.000E+00  0.000E+00  0.000E+00  1.03478E+03  2.279E+00  5.526E+01  6.148E-01  9.853E-01
   1   13    7     7     3    1.4685E+02  1.4109E+00   1.4544E+02  0.000E+00  0.000E+00  0.000E+00  1.02969E+03  2.271E+00  5.522E+01  5.585E-01  8.421E-01
   1   13    6     8     1    1.7417E+02  8.6341E-01   1.7330E+02  0.000E+00  0.000E+00  0.000E+00  1.02485E+03  2.977E+00  4.317E+01  4.399E-01  6.542E-01
   1   13    5     8     2    1.7330E+02  1.0795E-01   1.7320E+02  0.000E+00  0.000E+00  0.000E+00  1.01860E+03  2.974E+00  4.312E+01  4.395E-01  8.188E-02
   1   13    4     8     3    1.7320E+02 -2.8507E+00   1.7605E+02  0.000E+00  0.000E+00  0.000E+00  1.01236E+03  2.983E+00  4.325E+01  4.408E+00 -2.156E-01
   1   13    3     8     4    1.7605E+02 -3.9357E+00   1.7998E+02  0.000E+00  0.000E+00  0.000E+00  1.00613E+03  3.004E+00  4.356E+01  4.439E+00 -2.955E-01
   1   13    2     8     5    1.7998E+02 -2.8758E+00   1.8286E+02  0.000E+00  0.000E+00  0.000E+00  9.99901E+02  3.026E+00  4.388E+01  4.471E+00 -2.144E-01
   1   13    1     8     6    1.8286E+02 -2.1703E+00   1.8503E+02  0.000E+00  0.000E+00  0.000E+00  9.94917E+02  3.042E+00  4.410E+01  2.697E+00 -2.683E-01
   1    8    6     9     1    1.8409E+01  0.0000E+00   1.8409E+01  0.000E+00  0.000E+00  0.000E+00  1.08200E+03  3.254E+00  4.000E+00  0.000E+00  2.085E+00
   1    8    5     9     2    1.8409E+01  0.0000E+00   1.8409E+01  0.000E+00  0.000E+00  0.000E+00  1.08150E+03  3.254E+00  4.000E+00  0.000E+00  2.085E+00



 UBDSV3 SAVING "           GW ET" ON UNIT  61 AT TIME STEP  1, STRESS PERIOD  19
 UBDSV3 SAVING "    UZF RECHARGE" ON UNIT  61 AT TIME STEP  1, STRESS PERIOD  19
 UBDSV3 SAVING " SURFACE LEAKAGE" ON UNIT  61 AT TIME STEP  1, STRESS PERIOD  19
 UBDSV3 SAVING "       HORT+DUNN" ON UNIT  61 AT TIME STEP  1, STRESS PERIOD  19
 UBDSV3 SAVING "  STORAGE CHANGE" ON UNIT  61 AT TIME STEP  1, STRESS PERIOD  19


UNSATURATED ZONE PACKAGE VOLUMETRIC BUDGET FOR  TIME STEP     1 STRESS PERIOD   19
  ------------------------------------------------------------------------------



     CUMULATIVE VOLUMES      L**3       RATES FOR THIS TIME STEP      L**3/T
     ------------------                 ------------------------

           IN:                                      IN:
           ---                                      ---
        INFILTRATION =   626131421.4612          INFILTRATION =          22.8165

          OUT:                                     OUT:
          ----                                     ----
              UZF ET =   568326197.0455                UZF ET =          26.5008
        UZF RECHARGE =      654716.9165          UZF RECHARGE =       0.0000E+00

            IN - OUT =    57150507.4991              IN - OUT =          -3.6843

          STORAGE:                                 STORAGE:
          --------                                 --------
      STORAGE CHANGE =    57151102.0157        STORAGE CHANGE =          -3.6843

 PERCENT DISCREPANCY IS DIFFERENCE BETWEEN IN-OUT MINUS CHANGE IN STORAGE
 DIVIDED BY THE AVERAGE OF IN AND OUT TIMES 100

 PERCENT DISCREPANCY =          -0.00     PERCENT DISCREPANCY =           0.00






 

            AG WELLS      PERIOD   19   STEP   1
 AG WELL      1   LAYER   1   ROW     6   COL     4   RATE     0.00000    
 AG WELL      2   LAYER   1   ROW     6   COL     5   RATE     0.00000    
 AG WELL      3   LAYER   1   ROW     7   COL     4   RATE     0.00000    
 AG WELL      4   LAYER   1   ROW     7   COL     5   RATE     0.00000    
 AG WELL      5   LAYER   1   ROW     8   COL     4   RATE     0.00000    
 AG WELL      6   LAYER   1   ROW     8   COL     5   RATE     0.00000    
 
 

   DIVERSION SEGMENTS     PERIOD   19   STEP   1
 SEGMENT      9   RATE     18.4086    
 
 

        SW IRRIGATION     PERIOD   19   STEP   1
 SEGMENT      9   ROW     6   COL     4   RATE     3.06816    
 SEGMENT      9   ROW     6   COL     5   RATE     3.06816    
 SEGMENT      9   ROW     7   COL     4   RATE     3.06816    
 SEGMENT      9   ROW     7   COL     5   RATE     3.06816    
 SEGMENT      9   ROW     8   COL     4   RATE     3.06816    
 SEGMENT      9   ROW     8   COL     5   RATE     3.06816    
 
 

        GW IRRIGATION     PERIOD   19   STEP   1
 AG WELL      1   ROW     6   COL     4   RATE     0.00000    
 AG WELL      2   ROW     6   COL     5   RATE     0.00000    
 AG WELL      3   ROW     7   COL     4   RATE     0.00000    
 AG WELL      4   ROW     7   COL     5   RATE     0.00000    
 AG WELL      5   ROW     8   COL     4   RATE     0.00000    
 AG WELL      6   ROW     8   COL     5   RATE     0.00000    
 
1
  VOLUMETRIC BUDGET FOR AGRICULTURAL FIELDS AT TIME STEP    1, STRESS PERIOD  19
  ------------------------------------------------------------------------------

     CUMULATIVE VOLUMES      L**3       RATES FOR THIS TIME STEP      L**3/T
     ------------------                 ------------------------

           IN:                                      IN:
           ---                                      ---
               AG WELLS  =    44249552.0000                 AG WELLS  =           0.0000
      DIVERSION SEGMENTS =   384355200.0000        DIVERSION SEGMENTS =          18.4086
           GW IRRIGATION =           0.0000             GW IRRIGATION =           0.0000
           SW IRRIGATION =           0.0000             SW IRRIGATION =           0.0000
        SYSTEM LOSSES GW =           0.0000          SYSTEM LOSSES GW =           0.0000
        SYSTEM LOSSES SW =           0.0000          SYSTEM LOSSES SW =           0.0000

                TOTAL IN =   428604736.0000                  TOTAL IN =          18.4086

          OUT:                                     OUT:
          ----                                     ----
               AG WELLS  =           0.0000                 AG WELLS  =           0.0000
      DIVERSION SEGMENTS =           0.0000        DIVERSION SEGMENTS =           0.0000
           GW IRRIGATION =    44249552.0000             GW IRRIGATION =           0.0000
           SW IRRIGATION =   384363072.0000             SW IRRIGATION =          18.4090
        SYSTEM LOSSES GW =           0.0000          SYSTEM LOSSES GW =           0.0000
        SYSTEM LOSSES SW =           0.0000          SYSTEM LOSSES SW =           0.0000

               TOTAL OUT =   428612608.0000                 TOTAL OUT =          18.4090

                IN - OUT =       -7872.0000                  IN - OUT =      -3.6812E-04

     PERCENT DISCREPANCY =          -0.00         PERCENT DISCREPANCY =          -0.00



1
  VOLUMETRIC BUDGET FOR ENTIRE MODEL AT END OF TIME STEP    1, STRESS PERIOD  19
  ------------------------------------------------------------------------------

     CUMULATIVE VOLUMES      L**3       RATES FOR THIS TIME STEP      L**3/T
     ------------------                 ------------------------

           IN:                                      IN:
           ---                                      ---
             STORAGE     =    90600088.0000               STORAGE     =           1.6220
       CONSTANT HEAD     =           0.0000         CONSTANT HEAD     =           0.0000
     HEAD DEP BOUNDS     =    12825561.0000       HEAD DEP BOUNDS     =           0.2858
      STREAM LEAKAGE     =   539610432.0000        STREAM LEAKAGE     =          12.0481
        UZF RECHARGE     =      654716.8125          UZF RECHARGE     =           0.0000
               GW ET     =           0.0000                 GW ET     =           0.0000
     SURFACE LEAKAGE     =           0.0000       SURFACE LEAKAGE     =           0.0000
           AG WELLS      =           0.0000             AG WELLS      =           0.0000

                TOTAL IN =   643690816.0000                  TOTAL IN =          13.9558

          OUT:                                     OUT:
          ----                                     ----
             STORAGE     =    99915208.0000               STORAGE     =           1.6756
       CONSTANT HEAD     =           0.0000         CONSTANT HEAD     =           0.0000
     HEAD DEP BOUNDS     =    13073129.0000       HEAD DEP BOUNDS     =           0.2934
      STREAM LEAKAGE     =   484183136.0000        STREAM LEAKAGE     =          11.8326
        UZF RECHARGE     =           0.0000          UZF RECHARGE     =           0.0000
               GW ET     =     2249221.7500                 GW ET     =           0.1529
     SURFACE LEAKAGE     =           0.0000       SURFACE LEAKAGE     =           0.0000
           AG WELLS      =    44249552.0000             AG WELLS      =           0.0000

               TOTAL OUT =   643670208.0000                 TOTAL OUT =          13.9545

                IN - OUT =       20608.0000                  IN - OUT =       1.3485E-03

     PERCENT DISCREPANCY =           0.00         PERCENT DISCREPANCY =           0.01






         TIME SUMMARY AT END OF TIME STEP    1 IN STRESS PERIOD   19
                    SECONDS     MINUTES      HOURS       DAYS        YEARS
                    -----------------------------------------------------------
   TIME STEP LENGTH  87667.      1461.1      24.352      1.0147     2.77799E-03
 STRESS PERIOD TIME  87667.      1461.1      24.352      1.0147     2.77799E-03
         TOTAL TIME 4.48841E+07 7.48069E+05  12468.      519.49      1.4223    
1
 
 SOLVING FOR HEAD 
                                                   Max.-Head-Change                         Max.-Flux-Residual
  Residual-Control   Outer-Iter.   Inner-Iter.     Column Row Layer    Maximum-Head-Change  Column Row Layer    Maximum-Flux-Residual          L2-NORM 
          0                 1           2             1    1     1       0.2826309489E-02       1    1    1         0.1466658382E+00      0.3318875793E+00
          0                 2           2             2   13     1      -0.5364764751E-02       4   13    1        -0.3279111130E+00      0.5676042057E+00
          0                 3           2             2   13     1      -0.1030281491E-02       4   13    1        -0.6138353506E-01      0.1083262795E+00
          0                 4           2             2   13     1      -0.6076293680E-03       4   13    1        -0.3671555476E-01      0.6416946685E-01
          0                 5           2             4   13     1      -0.3782734469E-03       4   13    1        -0.2233870687E-01      0.3571836008E-01
          0                 6           1             2   13     1      -0.1174886133E-03       4   13    1        -0.6856404988E-02      0.1354782655E-01
          0                 7           1             4   13     1      -0.6335625748E-04       4   13    1        -0.3736524267E-02      0.6593743421E-02

    ------------------------------------------------
       NWT REQUIRED            7 OUTER ITERATIONS 
       AND A TOTAL OF         12 INNER ITERATIONS.
    ------------------------------------------------

 NO OUTPUT CONTROL FOR STRESS PERIOD   19   TIME STEP    2
 
 SOLVING FOR HEAD 
                                                   Max.-Head-Change                         Max.-Flux-Residual
  Residual-Control   Outer-Iter.   Inner-Iter.     Column Row Layer    Maximum-Head-Change  Column Row Layer    Maximum-Flux-Residual          L2-NORM 
          0                 1           2             1    1     1       0.2824405491E-02       4   13    1         0.1552050835E+00      0.3908145938E+00
          0                 2           2             2   13     1      -0.5382651239E-02       4   13    1        -0.3455331836E+00      0.5960927946E+00
          0                 3           2             4   13     1      -0.1478364176E-02       4   13    1        -0.8747378556E-01      0.1263406937E+00
          0                 4           2             2   13     1      -0.6211367123E-03       2   13    1        -0.3596152334E-01      0.6460579212E-01
          0                 5           2             4   13     1      -0.3458404038E-03       4   13    1        -0.2039875152E-01      0.3555784334E-01
          0                 6           2             4   13     1      -0.1206344623E-03       4   13    1        -0.7114704410E-02      0.1416531794E-01
          0                 7           1             4   13     1      -0.6471125641E-04       4   13    1        -0.3816218486E-02      0.6805103744E-02

    ------------------------------------------------
       NWT REQUIRED            7 OUTER ITERATIONS 
       AND A TOTAL OF         13 INNER ITERATIONS.
    ------------------------------------------------

 NO OUTPUT CONTROL FOR STRESS PERIOD   19   TIME STEP    3
 
 SOLVING FOR HEAD 
                                                   Max.-Head-Change                         Max.-Flux-Residual
  Residual-Control   Outer-Iter.   Inner-Iter.     Column Row Layer    Maximum-Head-Change  Column Row Layer    Maximum-Flux-Residual          L2-NORM 
          0                 1           2             4   13     1       0.3219305318E-02       4   13    1         0.1859633601E+00      0.4290455798E+00
          0                 2           2             4   13     1      -0.5700506236E-02       4   13    1        -0.3366040889E+00      0.5963254008E+00
          0                 3           2             4   13     1      -0.1052259474E-02       4   13    1        -0.6209566206E-01      0.1099026722E+00
          0                 4           2             4   13     1      -0.6359982562E-03       4   13    1        -0.3751620768E-01      0.6555615423E-01
          0                 5           2             4   13     1      -0.3482661667E-03       4   13    1        -0.2054069810E-01      0.3594967956E-01
          0                 6           2             4   13     1      -0.1188055186E-03       4   13    1        -0.7006970955E-02      0.1395834924E-01
          0                 7           1             4   13     1      -0.6403051058E-04       4   13    1        -0.3776034338E-02      0.6735667907E-02

    ------------------------------------------------
       NWT REQUIRED            7 OUTER ITERATIONS 
       AND A TOTAL OF         13 INNER ITERATIONS.
    ------------------------------------------------

 NO OUTPUT CONTROL FOR STRESS PERIOD   19   TIME STEP    4
 
 SOLVING FOR HEAD 
                                                   Max.-Head-Change                         Max.-Flux-Residual
  Residual-Control   Outer-Iter.   Inner-Iter.     Column Row Layer    Maximum-Head-Change  Column Row Layer    Maximum-Flux-Residual          L2-NORM 
          0                 1           2             4   13     1       0.3708270960E-02       4   13    1         0.2139837019E+00      0.4688793300E+00
          0                 2           2             4   13     1      -0.5763512535E-02       4   13    1        -0.3403127023E+00      0.6033430933E+00
          0                 3           2             4   13     1      -0.1050036582E-02       4   13    1        -0.6190770429E-01      0.1095541106E+00
          0                 4           2             4   13     1      -0.6373176237E-03       4   13    1        -0.3755964366E-01      0.6563462478E-01
          0                 5           2             4   13     1      -0.3514731981E-03       4   13    1        -0.2071085571E-01      0.3624574771E-01
          0                 6           2             4   13     1      -0.1169268803E-03       4   13    1        -0.6889865976E-02      0.1378967674E-01
          0                 7           1             4   13     1      -0.6330381403E-04       4   13    1        -0.3729801013E-02      0.6649619696E-02

    ------------------------------------------------
       NWT REQUIRED            7 OUTER ITERATIONS 
       AND A TOTAL OF         13 INNER ITERATIONS.
    ------------------------------------------------

 NO OUTPUT CONTROL FOR STRESS PERIOD   19   TIME STEP    5
 
 SOLVING FOR HEAD 
                                                   Max.-Head-Change                         Max.-Flux-Residual
  Residual-Control   Outer-Iter.   Inner-Iter.     Column Row Layer    Maximum-Head-Change  Column Row Layer    Maximum-Flux-Residual          L2-NORM 
          0                 1           2             4   13     1       0.4153110165E-02       4   13    1         0.2393780619E+00      0.5016438754E+00
          0                 2           2             4   13     1      -0.5817434226E-02       4   13    1        -0.3433723797E+00      0.6158587354E+00
          0                 3           2             3   13     1      -0.1287228334E-02       3   13    1        -0.7513525304E-01      0.1210812644E+00
          0                 4           2             4   13     1      -0.6388850436E-03       4   13    1        -0.3766596340E-01      0.6513552704E-01
          0                 5           2             4   13     1      -0.3547911704E-03       4   13    1        -0.2090540460E-01      0.3662937599E-01
          0                 6           2             4   13     1      -0.1153687553E-03       4   13    1        -0.6798128341E-02      0.1364712508E-01
          0                 7           1             4   13     1      -0.6272520689E-04       4   13    1        -0.3695709662E-02      0.6587372240E-02

    ------------------------------------------------
       NWT REQUIRED            7 OUTER ITERATIONS 
       AND A TOTAL OF         13 INNER ITERATIONS.
    ------------------------------------------------

 NO OUTPUT CONTROL FOR STRESS PERIOD   19   TIME STEP    6
 
 SOLVING FOR HEAD 
                                                   Max.-Head-Change                         Max.-Flux-Residual
  Residual-Control   Outer-Iter.   Inner-Iter.     Column Row Layer    Maximum-Head-Change  Column Row Layer    Maximum-Flux-Residual          L2-NORM 
          0                 1           2             4   13     1       0.4550138070E-02       4   13    1         0.2623142850E+00      0.5286611155E+00
          0                 2           2             4   13     1      -0.5875580498E-02       4   13    1        -0.3466250337E+00      0.6135008647E+00
          0                 3           2             4   13     1      -0.1041558331E-02       4   13    1        -0.6140723130E-01      0.1087525906E+00
          0                 4           2             4   13     1      -0.6387434062E-03       4   13    1        -0.3764383043E-01      0.6576622266E-01
          0                 5           2             4   13     1      -0.3568185920E-03       4   13    1        -0.2102582706E-01      0.3679279196E-01
          0                 6           2             4   13     1      -0.1135274976E-03       4   13    1        -0.6689616684E-02      0.1345111031E-01
          0                 7           1             4   13     1      -0.6200440821E-04       4   13    1        -0.3653239647E-02      0.6511334530E-02

    ------------------------------------------------
       NWT REQUIRED            7 OUTER ITERATIONS 
       AND A TOTAL OF         13 INNER ITERATIONS.
    ------------------------------------------------

 NO OUTPUT CONTROL FOR STRESS PERIOD   19   TIME STEP    7
 
 SOLVING FOR HEAD 
                                                   Max.-Head-Change                         Max.-Flux-Residual
  Residual-Control   Outer-Iter.   Inner-Iter.     Column Row Layer    Maximum-Head-Change  Column Row Layer    Maximum-Flux-Residual          L2-NORM 
          0                 1           2             4   13     1       0.4908502401E-02       4   13    1         0.2830083354E+00      0.5543956653E+00
          0                 2           2             4   13     1      -0.5922085607E-02       4   13    1        -0.3493770987E+00      0.6178464568E+00
          0                 3           2             4   13     1      -0.1041985868E-02       4   13    1        -0.6143165053E-01      0.1088274249E+00
          0                 4           2             4   13     1      -0.6355215941E-03       4   13    1        -0.3745404100E-01      0.6542325344E-01
          0                 5           2             4   13     1      -0.3589829695E-03       4   13    1        -0.2115333326E-01      0.3702226973E-01
          0                 6           2             7   13     1      -0.1117943054E-03       4   13    1        -0.6578885550E-02      0.1326864726E-01
          0                 7           1             4   13     1      -0.6130012688E-04       4   13    1        -0.3611761219E-02      0.6434678329E-02

    ------------------------------------------------
       NWT REQUIRED            7 OUTER ITERATIONS 
       AND A TOTAL OF         13 INNER ITERATIONS.
    ------------------------------------------------

 NO OUTPUT CONTROL FOR STRESS PERIOD   19   TIME STEP    8
 
 SOLVING FOR HEAD 
                                                   Max.-Head-Change                         Max.-Flux-Residual
  Residual-Control   Outer-Iter.   Inner-Iter.     Column Row Layer    Maximum-Head-Change  Column Row Layer    Maximum-Flux-Residual          L2-NORM 
          0                 1           2             4   13     1       0.5232310508E-02       4   13    1         0.3016990194E+00      0.5787282047E+00
          0                 2           2             4   13     1      -0.5964596757E-02       4   13    1        -0.3518917913E+00      0.6218912587E+00
          0                 3           2             4   13     1      -0.1038131034E-02       4   13    1        -0.6120386771E-01      0.1084533442E+00
          0                 4           2             4   13     1      -0.6361214718E-03       4   13    1        -0.3748942784E-01      0.6549373624E-01
          0                 5           2             4   13     1      -0.3612917278E-03       4   13    1        -0.2128935358E-01      0.3725128042E-01
          0                 6           2             7   13     1      -0.1112057953E-03       7   13    1        -0.6526817147E-02      0.1310331838E-01
          0                 7           1             4   13     1      -0.6065562319E-04       4   13    1        -0.3573780923E-02      0.6367249221E-02

    ------------------------------------------------
       NWT REQUIRED            7 OUTER ITERATIONS 
       AND A TOTAL OF         13 INNER ITERATIONS.
    ------------------------------------------------

 NO OUTPUT CONTROL FOR STRESS PERIOD   19   TIME STEP    9
 
 SOLVING FOR HEAD 
                                                   Max.-Head-Change                         Max.-Flux-Residual
  Residual-Control   Outer-Iter.   Inner-Iter.     Column Row Layer    Maximum-Head-Change  Column Row Layer    Maximum-Flux-Residual          L2-NORM 
          0                 1           2             4   13     1       0.5525104425E-02       4   13    1         0.3185921668E+00      0.6015966884E+00
          0                 2           2             4   13     1      -0.6003556934E-02       4   13    1        -0.3541954757E+00      0.6256594666E+00
          0                 3           2             4   13     1      -0.1034525491E-02       4   13    1        -0.6099086466E-01      0.1081086939E+00
          0                 4           2             4   13     1      -0.6349578705E-03       4   13    1        -0.3742089947E-01      0.6537093502E-01
          0                 5           2             4   13     1      -0.3645787369E-03       4   13    1        -0.2148301443E-01      0.3758991460E-01
          0                 6           2             7   13     1      -0.1105357830E-03       7   13    1        -0.6487637681E-02      0.1295665409E-01
          0                 7           1             4   13     1      -0.6012641983E-04       4   13    1        -0.3542584858E-02      0.6312231001E-02

    ------------------------------------------------
       NWT REQUIRED            7 OUTER ITERATIONS 
       AND A TOTAL OF         13 INNER ITERATIONS.
    ------------------------------------------------

 NO OUTPUT CONTROL FOR STRESS PERIOD   19   TIME STEP   10
 
 SOLVING FOR HEAD 
                                                   Max.-Head-Change                         Max.-Flux-Residual
  Residual-Control   Outer-Iter.   Inner-Iter.     Column Row Layer    Maximum-Head-Change  Column Row Layer    Maximum-Flux-Residual          L2-NORM 
          0                 1           2             4   13     1       0.5789940564E-02       4   13    1         0.3338653510E+00      0.6230146029E+00
          0                 2           2             4   13     1      -0.6025622523E-02       4   13    1        -0.3555032015E+00      0.6278030831E+00
          0                 3           2             4   13     1      -0.1037991581E-02       4   13    1        -0.6119495889E-01      0.1084773262E+00
          0                 4           2             4   13     1      -0.6381316438E-03       4   13    1        -0.3760802317E-01      0.6569956183E-01
          0                 5           2             4   13     1      -0.3692612699E-03       4   13    1        -0.2175891399E-01      0.3807406778E-01
          0                 6           2             7   13     1      -0.1098815549E-03       7   13    1        -0.6449237190E-02      0.1288937469E-01
          0                 7           1             4   13     1      -0.5955506076E-04       4   13    1        -0.3508928457E-02      0.6251483490E-02

    ------------------------------------------------
       NWT REQUIRED            7 OUTER ITERATIONS 
       AND A TOTAL OF         13 INNER ITERATIONS.
    ------------------------------------------------

 NO OUTPUT CONTROL FOR STRESS PERIOD   19   TIME STEP   11
 
 SOLVING FOR HEAD 
                                                   Max.-Head-Change                         Max.-Flux-Residual
  Residual-Control   Outer-Iter.   Inner-Iter.     Column Row Layer    Maximum-Head-Change  Column Row Layer    Maximum-Flux-Residual          L2-NORM 
          0                 1           2             4   13     1       0.6029603182E-02       4   13    1         0.3476804719E+00      0.6430019663E+00
          0                 2           2             4   13     1      -0.6065481116E-02       4   13    1        -0.3578563620E+00      0.6317945456E+00
          0                 3           2             2   13     1      -0.1030709893E-02       4   13    1        -0.6076377990E-01      0.1077446639E+00
          0                 4           2             4   13     1      -0.6374881575E-03       4   13    1        -0.3757003862E-01      0.6563329810E-01
          0                 5           2             4   13     1      -0.3695269899E-03       4   13    1        -0.2177453511E-01      0.3810172384E-01
          0                 6           2             7   13     1      -0.1099739600E-03       7   13    1        -0.6454662806E-02      0.1290605179E-01
          0                 7           1             4   13     1      -0.5765167028E-04       4   13    1        -0.3396763521E-02      0.6053587507E-02

    ------------------------------------------------
       NWT REQUIRED            7 OUTER ITERATIONS 
       AND A TOTAL OF         13 INNER ITERATIONS.
    ------------------------------------------------

 NO OUTPUT CONTROL FOR STRESS PERIOD   19   TIME STEP   12
 
 SOLVING FOR HEAD 
                                                   Max.-Head-Change                         Max.-Flux-Residual
  Residual-Control   Outer-Iter.   Inner-Iter.     Column Row Layer    Maximum-Head-Change  Column Row Layer    Maximum-Flux-Residual          L2-NORM 
          0                 1           2             4   13     1       0.6246758854E-02       4   13    1         0.3601922466E+00      0.6616396833E+00
          0                 2           2             4   13     1      -0.6102439312E-02       4   13    1        -0.3600375282E+00      0.6355382098E+00
          0                 3           2             2   13     1      -0.1021168637E-02       4   13    1        -0.6017647618E-01      0.1067375523E+00
          0                 4           2             4   13     1      -0.6344419551E-03       4   13    1        -0.3739052709E-01      0.6532080493E-01
          0                 5           2             4   13     1      -0.3716577858E-03       4   13    1        -0.2190007335E-01      0.3832287251E-01
          0                 6           2             7   13     1      -0.1091626340E-03       4   13    1        -0.6417469686E-02      0.1294989587E-01
          0                 7           1             4   13     1      -0.5567895160E-04       4   13    1        -0.3280567565E-02      0.5846556870E-02

    ------------------------------------------------
       NWT REQUIRED            7 OUTER ITERATIONS 
       AND A TOTAL OF         13 INNER ITERATIONS.
    ------------------------------------------------

 NO OUTPUT CONTROL FOR STRESS PERIOD   19   TIME STEP   13
 
 SOLVING FOR HEAD 
                                                   Max.-Head-Change                         Max.-Flux-Residual
  Residual-Control   Outer-Iter.   Inner-Iter.     Column Row Layer    Maximum-Head-Change  Column Row Layer    Maximum-Flux-Residual          L2-NORM 
          0                 1           2             4   13     1       0.6443311909E-02       4   13    1         0.3715116772E+00      0.6789590137E+00
          0                 2           2             4   13     1      -0.6130310498E-02       4   13    1        -0.3616827607E+00      0.6384143425E+00
          0                 3           2             2   13     1      -0.1017928924E-02       4   13    1        -0.5995620485E-01      0.1064922358E+00
          0                 4           2             4   13     1      -0.6349136649E-03       4   13    1        -0.3741657423E-01      0.6538166829E-01
          0                 5           2             4   13     1      -0.3733639740E-03       4   13    1        -0.2199862606E-01      0.3851090532E-01
          0                 6           2             4   13     1      -0.1094716256E-03       4   13    1        -0.6449604606E-02      0.1300839839E-01
          0                 7           1             4   13     1      -0.5378312146E-04       4   13    1        -0.3168604360E-02      0.5650519794E-02

    ------------------------------------------------
       NWT REQUIRED            7 OUTER ITERATIONS 
       AND A TOTAL OF         13 INNER ITERATIONS.
    ------------------------------------------------

 NO OUTPUT CONTROL FOR STRESS PERIOD   19   TIME STEP   14
 
 SOLVING FOR HEAD 
                                                   Max.-Head-Change                         Max.-Flux-Residual
  Residual-Control   Outer-Iter.   Inner-Iter.     Column Row Layer    Maximum-Head-Change  Column Row Layer    Maximum-Flux-Residual          L2-NORM 
          0                 1           2             4   13     1       0.6621561866E-02       4   13    1         0.3817718689E+00      0.6950664486E+00
          0                 2           2             4   13     1      -0.6156112284E-02       4   13    1        -0.3632051998E+00      0.6411138307E+00
          0                 3           2             2   13     1      -0.1014769592E-02       4   13    1        -0.5975909059E-01      0.1061575108E+00
          0                 4           2             4   13     1      -0.6335952685E-03       4   13    1        -0.3733887202E-01      0.6524939889E-01
          0                 5           2             4   13     1      -0.3761164525E-03       4   13    1        -0.2216078033E-01      0.3879551088E-01
          0                 6           2             4   13     1      -0.1102645032E-03       4   13    1        -0.6496305497E-02      0.1307868972E-01
          0                 7           1             4   13     1      -0.5208967558E-04       4   13    1        -0.3068844445E-02      0.5473225438E-02

    ------------------------------------------------
       NWT REQUIRED            7 OUTER ITERATIONS 
       AND A TOTAL OF         13 INNER ITERATIONS.
    ------------------------------------------------

 NO OUTPUT CONTROL FOR STRESS PERIOD   19   TIME STEP   15
 
 SOLVING FOR HEAD 
                                                   Max.-Head-Change                         Max.-Flux-Residual
  Residual-Control   Outer-Iter.   Inner-Iter.     Column Row Layer    Maximum-Head-Change  Column Row Layer    Maximum-Flux-Residual          L2-NORM 
          0                 1           2             4   13     1       0.6783344987E-02       4   13    1         0.3910795634E+00      0.7100292234E+00
          0                 2           2             4   13     1      -0.6179959566E-02       4   13    1        -0.3646117394E+00      0.6436440881E+00
          0                 3           2             2   13     1      -0.1011703806E-02       4   13    1        -0.5956941746E-01      0.1058334270E+00
          0                 4           2             4   13     1      -0.6341061972E-03       4   13    1        -0.3736894937E-01      0.6530546620E-01
          0                 5           2             4   13     1      -0.3772437566E-03       4   13    1        -0.2222715937E-01      0.3891397759E-01
          0                 6           2             4   13     1      -0.1106752168E-03       4   13    1        -0.6520496982E-02      0.1311336478E-01
          0                 7           1             4   13     1      -0.5042135640E-04       4   13    1        -0.2970545469E-02      0.5299002245E-02

    ------------------------------------------------
       NWT REQUIRED            7 OUTER ITERATIONS 
       AND A TOTAL OF         13 INNER ITERATIONS.
    ------------------------------------------------

 NO OUTPUT CONTROL FOR STRESS PERIOD   19   TIME STEP   16
 
 SOLVING FOR HEAD 
                                                   Max.-Head-Change                         Max.-Flux-Residual
  Residual-Control   Outer-Iter.   Inner-Iter.     Column Row Layer    Maximum-Head-Change  Column Row Layer    Maximum-Flux-Residual          L2-NORM 
          0                 1           2             4   13     1       0.6930226130E-02       4   13    1         0.3995255058E+00      0.7239269521E+00
          0                 2           2             4   13     1      -0.6202065173E-02       4   13    1        -0.3659150190E+00      0.6460214702E+00
          0                 3           2             2   13     1      -0.1008726698E-02       4   13    1        -0.5938565141E-01      0.1055184436E+00
          0                 4           2             4   13     1      -0.6328241296E-03       4   13    1        -0.3729337125E-01      0.6517731703E-01
          0                 5           2             4   13     1      -0.3794590880E-03       4   13    1        -0.2235766017E-01      0.3914455673E-01
          0                 6           2             4   13     1      -0.1113275336E-03       4   13    1        -0.6558921456E-02      0.1316638515E-01
          0                 7           1             4   13     1      -0.4891636714E-04       4   13    1        -0.2881861058E-02      0.5143333417E-02

    ------------------------------------------------
       NWT REQUIRED            7 OUTER ITERATIONS 
       AND A TOTAL OF         13 INNER ITERATIONS.
    ------------------------------------------------

 NO OUTPUT CONTROL FOR STRESS PERIOD   19   TIME STEP   17
 
 SOLVING FOR HEAD 
                                                   Max.-Head-Change                         Max.-Flux-Residual
  Residual-Control   Outer-Iter.   Inner-Iter.     Column Row Layer    Maximum-Head-Change  Column Row Layer    Maximum-Flux-Residual          L2-NORM 
          0                 1           2             4   13     1       0.7063679051E-02       4   13    1         0.4071953324E+00      0.7368262169E+00
          0                 2           2             4   13     1      -0.6222620139E-02       4   13    1        -0.3671263943E+00      0.6482587221E+00
          0                 3           2             2   13     1      -0.1005695001E-02       4   13    1        -0.5919821633E-01      0.1051969390E+00
          0                 4           2             4   13     1      -0.6335349253E-03       4   13    1        -0.3733521947E-01      0.6525374765E-01
          0                 5           2             4   13     1      -0.3801012248E-03       4   13    1        -0.2239545595E-01      0.3921327515E-01
          0                 6           2             4   13     1      -0.1116090977E-03       4   13    1        -0.6575498614E-02      0.1318601455E-01
          0                 7           1             4   13     1      -0.4745370889E-04       4   13    1        -0.2795691986E-02      0.4990639022E-02

    ------------------------------------------------
       NWT REQUIRED            7 OUTER ITERATIONS 
       AND A TOTAL OF         13 INNER ITERATIONS.
    ------------------------------------------------

 NO OUTPUT CONTROL FOR STRESS PERIOD   19   TIME STEP   18
 
 SOLVING FOR HEAD 
                                                   Max.-Head-Change                         Max.-Flux-Residual
  Residual-Control   Outer-Iter.   Inner-Iter.     Column Row Layer    Maximum-Head-Change  Column Row Layer    Maximum-Flux-Residual          L2-NORM 
          0                 1           2             4   13     1       0.7185031878E-02       4   13    1         0.4141659062E+00      0.7488062609E+00
          0                 2           2             4   13     1      -0.6241747201E-02       4   13    1        -0.3682531541E+00      0.6503672213E+00
          0                 3           2             2   13     1      -0.1005545263E-02       4   13    1        -0.5918864011E-01      0.1051801311E+00
          0                 4           2             4   13     1      -0.6309365950E-03       4   13    1        -0.3718202587E-01      0.6499277313E-01
          0                 5           2             4   13     1      -0.3809112456E-03       4   13    1        -0.2244315335E-01      0.3929760131E-01
          0                 6           2             4   13     1      -0.1118425487E-03       4   13    1        -0.6589241396E-02      0.1320075332E-01
          0                 7           1             4   13     1      -0.4609717498E-04       4   13    1        -0.2715773375E-02      0.4848710760E-02

    ------------------------------------------------
       NWT REQUIRED            7 OUTER ITERATIONS 
       AND A TOTAL OF         13 INNER ITERATIONS.
    ------------------------------------------------

 NO OUTPUT CONTROL FOR STRESS PERIOD   19   TIME STEP   19
 
 SOLVING FOR HEAD 
                                                   Max.-Head-Change                         Max.-Flux-Residual
  Residual-Control   Outer-Iter.   Inner-Iter.     Column Row Layer    Maximum-Head-Change  Column Row Layer    Maximum-Flux-Residual          L2-NORM 
          0                 1           2             4   13     1       0.7295450640E-02       4   13    1         0.4205048950E+00      0.7599226045E+00
          0                 2           2             4   13     1      -0.6259573900E-02       4   13    1        -0.3693029200E+00      0.6523535072E+00
          0                 3           2             2   13     1      -0.9987776647E-03       4   13    1        -0.5877853299E-01      0.1044682148E+00
          0                 4           2             4   13     1      -0.6317026615E-03       4   13    1        -0.3722719204E-01      0.6507306716E-01
          0                 5           2             4   13     1      -0.3839589141E-03       4   13    1        -0.2262268790E-01      0.3961610017E-01
          0                 6           2             4   13     1      -0.1127493487E-03       4   13    1        -0.6642654390E-02      0.1327144683E-01
          0                 7           1             4   13     1      -0.4498096755E-04       4   13    1        -0.2650008564E-02      0.4732555175E-02

    ------------------------------------------------
       NWT REQUIRED            7 OUTER ITERATIONS 
       AND A TOTAL OF         13 INNER ITERATIONS.
    ------------------------------------------------

 NO OUTPUT CONTROL FOR STRESS PERIOD   19   TIME STEP   20
 
 SOLVING FOR HEAD 
                                                   Max.-Head-Change                         Max.-Flux-Residual
  Residual-Control   Outer-Iter.   Inner-Iter.     Column Row Layer    Maximum-Head-Change  Column Row Layer    Maximum-Flux-Residual          L2-NORM 
          0                 1           2             4   13     1       0.7395922426E-02       4   13    1         0.4262695348E+00      0.7702444705E+00
          0                 2           2             4   13     1      -0.6276257768E-02       4   13    1        -0.3702850057E+00      0.6542322800E+00
          0                 3           2             2   13     1      -0.9919201660E-03       4   13    1        -0.5836430574E-01      0.1037470519E+00
          0                 4           2             4   13     1      -0.6344514262E-03       4   13    1        -0.3738914259E-01      0.6536018625E-01
          0                 5           2             4   13     1      -0.3854868292E-03       4   13    1        -0.2271268955E-01      0.3977586600E-01
          0                 6           2             4   13     1      -0.1132909342E-03       4   13    1        -0.6674536789E-02      0.1330688673E-01
          0                 7           1             4   13     1      -0.4387090201E-04       4   13    1        -0.2584635263E-02      0.4619630134E-02

    ------------------------------------------------
       NWT REQUIRED            7 OUTER ITERATIONS 
       AND A TOTAL OF         13 INNER ITERATIONS.
    ------------------------------------------------

 NO OUTPUT CONTROL FOR STRESS PERIOD   19   TIME STEP   21
 
 SOLVING FOR HEAD 
                                                   Max.-Head-Change                         Max.-Flux-Residual
  Residual-Control   Outer-Iter.   Inner-Iter.     Column Row Layer    Maximum-Head-Change  Column Row Layer    Maximum-Flux-Residual          L2-NORM 
          0                 1           2             4   13     1       0.7487475600E-02       4   13    1         0.4315193999E+00      0.7798213329E+00
          0                 2           2             4   13     1      -0.6291849622E-02       4   13    1        -0.3712024462E+00      0.6560064298E+00
          0                 3           2             2   13     1      -0.9849842242E-03       4   13    1        -0.5794622087E-01      0.1030171758E+00
          0                 4           2             4   13     1      -0.6353699625E-03       4   13    1        -0.3744325174E-01      0.6546062387E-01
          0                 5           2             4   13     1      -0.3883181146E-03       4   13    1        -0.2287951820E-01      0.4006653942E-01
          0                 6           2             4   13     1      -0.1141145383E-03       4   13    1        -0.6723050282E-02      0.1337326318E-01
          0                 7           1             4   13     1      -0.4291882314E-04       4   13    1        -0.2528508595E-02      0.4517680406E-02

    ------------------------------------------------
       NWT REQUIRED            7 OUTER ITERATIONS 
       AND A TOTAL OF         13 INNER ITERATIONS.
    ------------------------------------------------

 NO OUTPUT CONTROL FOR STRESS PERIOD   19   TIME STEP   22
 
 SOLVING FOR HEAD 
                                                   Max.-Head-Change                         Max.-Flux-Residual
  Residual-Control   Outer-Iter.   Inner-Iter.     Column Row Layer    Maximum-Head-Change  Column Row Layer    Maximum-Flux-Residual          L2-NORM 
          0                 1           2             4   13     1       0.7570900510E-02       4   13    1         0.4363004205E+00      0.7887155137E+00
          0                 2           2             4   13     1      -0.6306482150E-02       4   13    1        -0.3720631901E+00      0.6576845234E+00
          0                 3           2             2   13     1      -0.9780083339E-03       4   13    1        -0.5752613003E-01      0.1022851321E+00
          0                 4           2             4   13     1      -0.6383393985E-03       4   13    1        -0.3761820737E-01      0.6576960455E-01
          0                 5           2             4   13     1      -0.3895760539E-03       4   13    1        -0.2295358610E-01      0.4020042561E-01
          0                 6           2             4   13     1      -0.1145744559E-03       4   13    1        -0.6750157339E-02      0.1340122408E-01
          0                 7           1             4   13     1      -0.4194616610E-04       4   13    1        -0.2471207261E-02      0.4416909011E-02

    ------------------------------------------------
       NWT REQUIRED            7 OUTER ITERATIONS 
       AND A TOTAL OF         13 INNER ITERATIONS.
    ------------------------------------------------

 NO OUTPUT CONTROL FOR STRESS PERIOD   19   TIME STEP   23
 
 SOLVING FOR HEAD 
                                                   Max.-Head-Change                         Max.-Flux-Residual
  Residual-Control   Outer-Iter.   Inner-Iter.     Column Row Layer    Maximum-Head-Change  Column Row Layer    Maximum-Flux-Residual          L2-NORM 
          0                 1           2             4   13     1       0.7647078688E-02       4   13    1         0.4406634123E+00      0.7969760929E+00
          0                 2           2             4   13     1      -0.6320258538E-02       4   13    1        -0.3728732902E+00      0.6592751343E+00
          0                 3           2             2   13     1      -0.9748582888E-03       4   13    1        -0.5733340629E-01      0.1019508953E+00
          0                 4           2             4   13     1      -0.6375303799E-03       4   13    1        -0.3757051318E-01      0.6568784689E-01
          0                 5           2             4   13     1      -0.3907387286E-03       4   13    1        -0.2302205026E-01      0.4032325379E-01
          0                 6           2             4   13     1      -0.1149475203E-03       4   13    1        -0.6772127777E-02      0.1342227152E-01
          0                 7           1             4   13     1      -0.4103360677E-04       4   13    1        -0.2417439093E-02      0.4321819221E-02

    ------------------------------------------------
       NWT REQUIRED            7 OUTER ITERATIONS 
       AND A TOTAL OF         13 INNER ITERATIONS.
    ------------------------------------------------

 NO OUTPUT CONTROL FOR STRESS PERIOD   19   TIME STEP   24
 
 SOLVING FOR HEAD 
                                                   Max.-Head-Change                         Max.-Flux-Residual
  Residual-Control   Outer-Iter.   Inner-Iter.     Column Row Layer    Maximum-Head-Change  Column Row Layer    Maximum-Flux-Residual          L2-NORM 
          0                 1           2             4   13     1       0.7716532873E-02       4   13    1         0.4446387730E+00      0.8046489877E+00
          0                 2           2             4   13     1      -0.6333217659E-02       4   13    1        -0.3736350430E+00      0.6607864782E+00
          0                 3           2             2   13     1      -0.9722556301E-03       4   13    1        -0.5717738892E-01      0.1016759764E+00
          0                 4           2             4   13     1      -0.6364725367E-03       4   13    1        -0.3750812734E-01      0.6558291706E-01
          0                 5           2             4   13     1      -0.3915914254E-03       4   13    1        -0.2307227029E-01      0.4041297352E-01
          0                 6           2             4   13     1      -0.1151934642E-03       4   13    1        -0.6786605668E-02      0.1343097566E-01
          0                 7           1             4   13     1      -0.4015927943E-04       4   13    1        -0.2365915988E-02      0.4231444555E-02

    ------------------------------------------------
       NWT REQUIRED            7 OUTER ITERATIONS 
       AND A TOTAL OF         13 INNER ITERATIONS.
    ------------------------------------------------

 NO OUTPUT CONTROL FOR STRESS PERIOD   19   TIME STEP   25
 
 SOLVING FOR HEAD 
                                                   Max.-Head-Change                         Max.-Flux-Residual
  Residual-Control   Outer-Iter.   Inner-Iter.     Column Row Layer    Maximum-Head-Change  Column Row Layer    Maximum-Flux-Residual          L2-NORM 
          0                 1           2             4   13     1       0.7779981143E-02       4   13    1         0.4482680816E+00      0.8117760616E+00
          0                 2           2             4   13     1      -0.6345485716E-02       4   13    1        -0.3743559905E+00      0.6622235171E+00
          0                 3           2             2   13     1      -0.9696799684E-03       4   13    1        -0.5702271273E-01      0.1014049431E+00
          0                 4           2             4   13     1      -0.6354339976E-03       4   13    1        -0.3744688269E-01      0.6547967244E-01
          0                 5           2             4   13     1      -0.3922977380E-03       4   13    1        -0.2311385392E-01      0.4048817221E-01
          0                 6           2             4   13     1      -0.1154221579E-03       4   13    1        -0.6800065645E-02      0.1343771691E-01
          0                 7           1             4   13     1      -0.3982110146E-04       4   13    1        -0.2345999786E-02      0.4195614227E-02

    ------------------------------------------------
       NWT REQUIRED            7 OUTER ITERATIONS 
       AND A TOTAL OF         13 INNER ITERATIONS.
    ------------------------------------------------

 NO OUTPUT CONTROL FOR STRESS PERIOD   19   TIME STEP   26
 
 SOLVING FOR HEAD 
                                                   Max.-Head-Change                         Max.-Flux-Residual
  Residual-Control   Outer-Iter.   Inner-Iter.     Column Row Layer    Maximum-Head-Change  Column Row Layer    Maximum-Flux-Residual          L2-NORM 
          0                 1           2             4   13     1       0.7838135405E-02       4   13    1         0.4515924482E+00      0.8184089089E+00
          0                 2           2             4   13     1      -0.6357075807E-02       4   13    1        -0.3750368741E+00      0.6635899503E+00
          0                 3           2             2   13     1      -0.9671648808E-03       4   13    1        -0.5687231923E-01      0.1011396973E+00
          0                 4           2             4   13     1      -0.6344383131E-03       4   13    1        -0.3738815522E-01      0.6538100619E-01
          0                 5           2             4   13     1      -0.3928297615E-03       4   13    1        -0.2314517436E-01      0.4055489264E-01
          0                 6           2             4   13     1      -0.1156021791E-03       4   13    1        -0.6810666468E-02      0.1342924876E-01
          0                 7           1             4   13     1      -0.3988607602E-04       4   13    1        -0.2349823477E-02      0.4203757790E-02

    ------------------------------------------------
       NWT REQUIRED            7 OUTER ITERATIONS 
       AND A TOTAL OF         13 INNER ITERATIONS.
    ------------------------------------------------

 NO OUTPUT CONTROL FOR STRESS PERIOD   19   TIME STEP   27
 
 SOLVING FOR HEAD 
                                                   Max.-Head-Change                         Max.-Flux-Residual
  Residual-Control   Outer-Iter.   Inner-Iter.     Column Row Layer    Maximum-Head-Change  Column Row Layer    Maximum-Flux-Residual          L2-NORM 
          0                 1           2             4   13     1       0.7891334510E-02       4   13    1         0.4546315067E+00      0.8245841905E+00
          0                 2           2             4   13     1      -0.6368063871E-02       4   13    1        -0.3756821947E+00      0.6648945908E+00
          0                 3           2             2   13     1      -0.9646743378E-03       4   13    1        -0.5672317020E-01      0.1008772370E+00
          0                 4           2             4   13     1      -0.6335041387E-03       4   13    1        -0.3733305744E-01      0.6528754947E-01
          0                 5           2             4   13     1      -0.3931649493E-03       4   13    1        -0.2316490110E-01      0.4058187212E-01
          0                 6           2             4   13     1      -0.1157044670E-03       4   13    1        -0.6816675646E-02      0.1343159795E-01
          0                 7           1             4   13     1      -0.3993807970E-04       4   13    1        -0.2352893284E-02      0.4208148612E-02

    ------------------------------------------------
       NWT REQUIRED            7 OUTER ITERATIONS 
       AND A TOTAL OF         13 INNER ITERATIONS.
    ------------------------------------------------

 NO OUTPUT CONTROL FOR STRESS PERIOD   19   TIME STEP   28
 
 SOLVING FOR HEAD 
                                                   Max.-Head-Change                         Max.-Flux-Residual
  Residual-Control   Outer-Iter.   Inner-Iter.     Column Row Layer    Maximum-Head-Change  Column Row Layer    Maximum-Flux-Residual          L2-NORM 
          0                 1           2             4   13     1       0.7432525696E-02       4   13    1         0.4281596275E+00      0.7800427314E+00
          0                 2           2             4   13     1      -0.6322849476E-02       4   13    1        -0.3729431063E+00      0.6591395667E+00
          0                 3           2             2   13     1      -0.9632161960E-03       4   13    1        -0.5663071453E-01      0.1006704945E+00
          0                 4           2             4   13     1      -0.6331107654E-03       4   13    1        -0.3730273362E-01      0.6525037933E-01
          0                 5           2             4   13     1      -0.3866919592E-03       4   13    1        -0.2277918902E-01      0.4177015680E-01
          0                 6           1             4   13     1      -0.1167549633E-03       4   13    1        -0.6877264203E-02      0.1235773379E-01
          0                 7           1             4   13     1      -0.3962939020E-04       4   13    1        -0.2334271564E-02      0.4189203169E-02

    ------------------------------------------------
       NWT REQUIRED            7 OUTER ITERATIONS 
       AND A TOTAL OF         12 INNER ITERATIONS.
    ------------------------------------------------

 NO OUTPUT CONTROL FOR STRESS PERIOD   19   TIME STEP   29
 
 SOLVING FOR HEAD 
                                                   Max.-Head-Change                         Max.-Flux-Residual
  Residual-Control   Outer-Iter.   Inner-Iter.     Column Row Layer    Maximum-Head-Change  Column Row Layer    Maximum-Flux-Residual          L2-NORM 
          0                 1           2             4   13     1       0.6886892958E-02       4   13    1         0.3967038656E+00      0.7262504443E+00
          0                 2           2             4   13     1      -0.6267971336E-02       4   13    1        -0.3696186434E+00      0.6520333646E+00
          0                 3           2             2   13     1      -0.9619527049E-03       4   13    1        -0.5654280445E-01      0.1004705223E+00
          0                 4           2             4   13     1      -0.6250563523E-03       4   13    1        -0.3681940818E-01      0.6635097800E-01
          0                 5           2             4   13     1      -0.3876324947E-03       4   13    1        -0.2282915318E-01      0.4084087246E-01
          0                 6           1             4   13     1      -0.1162993901E-03       4   13    1        -0.6848802003E-02      0.1233941795E-01
          0                 7           1             4   13     1      -0.4057603542E-04       4   13    1        -0.2390086229E-02      0.4219640652E-02

    ------------------------------------------------
       NWT REQUIRED            7 OUTER ITERATIONS 
       AND A TOTAL OF         12 INNER ITERATIONS.
    ------------------------------------------------

 NO OUTPUT CONTROL FOR STRESS PERIOD   19   TIME STEP   30



 STREAM LISTING     PERIOD     19   STEP       30

 LAYER ROW COL. STREAM  RCH.  FLOW INTO     FLOW TO   FLOW OUT OF   OVRLND.     DIRECT     STREAM       STREAM     STREAM     STREAM   STREAMBED  STREAMBED
                SEG.NO.  NO.  STRM. RCH.    AQUIFER    STRM. RCH.    RUNOFF     PRECIP       ET          HEAD       DEPTH      WIDTH   CONDCTNC.   GRADIENT

   1    1    1     1     1    4.0501E+01  3.0566E-01   4.0195E+01  0.000E+00  0.000E+00  0.000E+00  1.09438E+03  1.335E+00  1.567E+01  7.051E-02  1.445E+00
   1    2    2     1     2    4.0195E+01  4.7341E-01   3.9722E+01  0.000E+00  0.000E+00  0.000E+00  1.08939E+03  1.332E+00  1.561E+01  1.093E-01  1.444E+00
   1    3    3     1     3    3.9722E+01  4.0378E-01   3.9318E+01  0.000E+00  0.000E+00  0.000E+00  1.08375E+03  1.329E+00  1.555E+01  9.328E-02  1.443E+00
   1    3    4     1     4    3.9318E+01  3.7185E-01   3.8946E+01  0.000E+00  0.000E+00  0.000E+00  1.07873E+03  1.326E+00  1.549E+01  8.596E-02  1.442E+00
   1    4    5     2     1    3.6946E+01  3.5272E-01   3.6593E+01  0.000E+00  0.000E+00  0.000E+00  1.07346E+03  1.522E+00  1.200E+01  7.800E-02  1.507E+00
   1    5    6     2     2    3.6593E+01  2.7086E-01   3.6322E+01  0.000E+00  0.000E+00  0.000E+00  1.06802E+03  1.514E+00  1.200E+01  6.000E-02  1.505E+00
   1    6    6     2     3    3.6322E+01  2.7045E-01   3.6052E+01  0.000E+00  0.000E+00  0.000E+00  1.06330E+03  1.508E+00  1.200E+01  6.000E-02  1.503E+00
   1    7    6     2     4    3.6052E+01  2.7005E-01   3.5782E+01  0.000E+00  0.000E+00  0.000E+00  1.05858E+03  1.501E+00  1.200E+01  6.000E-02  1.500E+00
   1    8    6     2     5    3.5782E+01  2.6964E-01   3.5512E+01  0.000E+00  0.000E+00  0.000E+00  1.05385E+03  1.494E+00  1.200E+01  6.000E-02  1.498E+00
   1    3    5     3     1    2.0000E+00  2.8252E-01   1.7175E+00  0.000E+00  0.000E+00  0.000E+00  1.07555E+03  1.909E+00  9.636E+00  7.227E-02  1.955E+00
   1    3    6     3     2    1.7175E+00  2.4905E-01   1.4684E+00  0.000E+00  0.000E+00  0.000E+00  1.07264E+03  1.727E+00  8.909E+00  6.682E-02  1.864E+00
   1    3    7     3     3    1.4684E+00  1.9718E-01   1.2712E+00  0.000E+00  0.000E+00  0.000E+00  1.06987E+03  1.555E+00  8.218E+00  5.547E-02  1.777E+00
   1    4    8     3     4    1.2712E+00  2.2567E-01   1.0456E+00  0.000E+00  0.000E+00  0.000E+00  1.06682E+03  1.364E+00  7.455E+00  6.709E-02  1.682E+00
   1    5    8     3     5    1.0456E+00  1.5790E-01   8.8768E-01  0.000E+00  0.000E+00  0.000E+00  1.06362E+03  1.164E+00  6.655E+00  4.991E-02  1.582E+00
   1    6    8     3     6    8.8768E-01  5.5980E-02   8.3170E-01  0.000E+00  0.000E+00  0.000E+00  1.06158E+03  1.036E+00  6.145E+00  1.844E-02  1.518E+00
   1    5   10     4     1    1.0000E+01  9.0919E-02   9.9091E+00  0.000E+00  0.000E+00  0.000E+00  1.07836E+03  6.368E-01  1.000E+01  2.500E-02  1.212E+00
   1    5    9     4     2    9.9091E+00  1.8158E-01   9.7275E+00  0.000E+00  0.000E+00  0.000E+00  1.07154E+03  6.315E-01  1.000E+01  5.000E-02  1.211E+00
   1    6    8     4     3    9.7275E+00  1.2689E-01   9.6006E+00  0.000E+00  0.000E+00  0.000E+00  1.06381E+03  6.256E-01  1.000E+01  3.500E-02  1.209E+00
   1    6    8     5     1    1.0432E+01  2.2686E-01   1.0205E+01  0.000E+00  0.000E+00  0.000E+00  1.05868E+03  6.790E-01  1.542E+01  6.166E-02  1.226E+00
   1    7    7     5     2    1.0205E+01  2.7894E-01   9.9265E+00  0.000E+00  0.000E+00  0.000E+00  1.05417E+03  6.732E-01  1.519E+01  7.594E-02  1.224E+00
   1    8    7     5     3    9.9265E+00  1.9221E-01   9.7343E+00  0.000E+00  0.000E+00  0.000E+00  1.04992E+03  6.676E-01  1.497E+01  5.241E-02  1.223E+00
   1    8    6     5     4    9.7343E+00  1.3577E-01   9.5985E+00  0.000E+00  0.000E+00  0.000E+00  1.04691E+03  6.637E-01  1.482E+01  3.706E-02  1.221E+00
   1    9    6     6     1    2.2846E+01  2.4928E-01   2.2597E+01  0.000E+00  0.000E+00  0.000E+00  1.04388E+03  1.155E+00  1.200E+01  6.000E-02  1.385E+00
   1   10    7     6     2    2.2597E+01  2.4883E-01   2.2348E+01  0.000E+00  0.000E+00  0.000E+00  1.03933E+03  1.147E+00  1.200E+01  6.000E-02  1.382E+00
   1   11    7     6     3    2.2348E+01  2.4837E-01   2.2100E+01  0.000E+00  0.000E+00  0.000E+00  1.03478E+03  1.140E+00  1.200E+01  6.000E-02  1.380E+00
   1   12    7     6     4    2.2100E+01  2.4791E-01   2.1852E+01  0.000E+00  0.000E+00  0.000E+00  1.03022E+03  1.132E+00  1.200E+01  6.000E-02  1.377E+00
   1   13    7     6     5    2.1852E+01 -2.8055E-02   2.1880E+01  0.000E+00  0.000E+00  0.000E+00  1.02704E+03  1.129E+00  1.200E+01  2.400E-01 -3.897E-02
   1   14    9     7     1    1.5000E+02  1.3361E+00   1.4866E+02  0.000E+00  0.000E+00  0.000E+00  1.03987E+03  2.288E+00  5.529E+01  5.593E-01  7.963E-01
   1   13    8     7     2    1.4866E+02  1.8167E+00   1.4685E+02  0.000E+00  0.000E+00  0.000E+00  1.03478E+03  2.279E+00  5.526E+01  6.148E-01  9.850E-01
   1   13    7     7     3    1.4685E+02  1.4160E+00   1.4543E+02  0.000E+00  0.000E+00  0.000E+00  1.02969E+03  2.271E+00  5.522E+01  5.585E-01  8.452E-01
   1   13    6     8     1    1.6731E+02  8.4466E-01   1.6647E+02  0.000E+00  0.000E+00  0.000E+00  1.02481E+03  2.932E+00  4.252E+01  4.333E-01  6.498E-01
   1   13    5     8     2    1.6647E+02  1.0121E-01   1.6637E+02  0.000E+00  0.000E+00  0.000E+00  1.01855E+03  2.929E+00  4.247E+01  4.328E-01  7.795E-02
   1   13    4     8     3    1.6637E+02 -2.7337E+00   1.6910E+02  0.000E+00  0.000E+00  0.000E+00  1.01231E+03  2.938E+00  4.260E+01  4.341E+00 -2.099E-01
   1   13    3     8     4    1.6910E+02 -3.8250E+00   1.7292E+02  0.000E+00  0.000E+00  0.000E+00  1.00608E+03  2.959E+00  4.291E+01  4.372E+00 -2.916E-01
   1   13    2     8     5    1.7292E+02 -2.6927E+00   1.7562E+02  0.000E+00  0.000E+00  0.000E+00  9.99855E+02  2.980E+00  4.321E+01  4.403E+00 -2.038E-01
   1   13    1     8     6    1.7562E+02 -2.0726E+00   1.7769E+02  0.000E+00  0.000E+00  0.000E+00  9.94870E+02  2.995E+00  4.343E+01  2.656E+00 -2.602E-01
   1    8    6     9     1    2.2264E+01  0.0000E+00   2.2264E+01  0.000E+00  0.000E+00  0.000E+00  1.08241E+03  3.657E+00  4.000E+00  0.000E+00  2.219E+00
   1    8    5     9     2    2.2264E+01  0.0000E+00   2.2264E+01  0.000E+00  0.000E+00  0.000E+00  1.08191E+03  3.657E+00  4.000E+00  0.000E+00  2.219E+00





UNSATURATED ZONE PACKAGE VOLUMETRIC BUDGET FOR  TIME STEP    30 STRESS PERIOD   19
  ------------------------------------------------------------------------------



     CUMULATIVE VOLUMES      L**3       RATES FOR THIS TIME STEP      L**3/T
     ------------------                 ------------------------

           IN:                                      IN:
           ---                                      ---
        INFILTRATION =   693859532.7844          INFILTRATION =          26.6722

          OUT:                                     OUT:
          ----                                     ----
              UZF ET =   635869978.1813                UZF ET =          26.5792
        UZF RECHARGE =      654716.9165          UZF RECHARGE =       0.0000E+00

            IN - OUT =    57334837.6866              IN - OUT =       9.3016E-02

          STORAGE:                                 STORAGE:
          --------                                 --------
      STORAGE CHANGE =    57335432.3503        STORAGE CHANGE =       9.3015E-02

 PERCENT DISCREPANCY IS DIFFERENCE BETWEEN IN-OUT MINUS CHANGE IN STORAGE
 DIVIDED BY THE AVERAGE OF IN AND OUT TIMES 100

 PERCENT DISCREPANCY =          -0.00     PERCENT DISCREPANCY =           0.00






1
  VOLUMETRIC BUDGET FOR AGRICULTURAL FIELDS AT TIME STEP   30, STRESS PERIOD  19
  ------------------------------------------------------------------------------

     CUMULATIVE VOLUMES      L**3       RATES FOR THIS TIME STEP      L**3/T
     ------------------                 ------------------------

           IN:                                      IN:
           ---                                      ---
               AG WELLS  =    44249552.0000                 AG WELLS  =           0.0000
      DIVERSION SEGMENTS =   440876896.0000        DIVERSION SEGMENTS =          22.2643
           GW IRRIGATION =           0.0000             GW IRRIGATION =           0.0000
           SW IRRIGATION =           0.0000             SW IRRIGATION =           0.0000
        SYSTEM LOSSES GW =           0.0000          SYSTEM LOSSES GW =           0.0000
        SYSTEM LOSSES SW =           0.0000          SYSTEM LOSSES SW =           0.0000

                TOTAL IN =   485126464.0000                  TOTAL IN =          22.2643

          OUT:                                     OUT:
          ----                                     ----
               AG WELLS  =           0.0000                 AG WELLS  =           0.0000
      DIVERSION SEGMENTS =           0.0000        DIVERSION SEGMENTS =           0.0000
           GW IRRIGATION =    44249552.0000             GW IRRIGATION =           0.0000
           SW IRRIGATION =   440885792.0000             SW IRRIGATION =          22.2647
        SYSTEM LOSSES GW =           0.0000          SYSTEM LOSSES GW =           0.0000
        SYSTEM LOSSES SW =           0.0000          SYSTEM LOSSES SW =           0.0000

               TOTAL OUT =   485135360.0000                 TOTAL OUT =          22.2647

                IN - OUT =       -8896.0000                  IN - OUT =      -4.4441E-04

     PERCENT DISCREPANCY =          -0.00         PERCENT DISCREPANCY =          -0.00



1
  VOLUMETRIC BUDGET FOR ENTIRE MODEL AT END OF TIME STEP   30, STRESS PERIOD  19
  ------------------------------------------------------------------------------

     CUMULATIVE VOLUMES      L**3       RATES FOR THIS TIME STEP      L**3/T
     ------------------                 ------------------------

           IN:                                      IN:
           ---                                      ---
             STORAGE     =    93297256.0000               STORAGE     =           0.9228
       CONSTANT HEAD     =           0.0000         CONSTANT HEAD     =           0.0000
     HEAD DEP BOUNDS     =    13552098.0000       HEAD DEP BOUNDS     =           0.2858
      STREAM LEAKAGE     =   570110336.0000        STREAM LEAKAGE     =          11.8989
        UZF RECHARGE     =      654716.8125          UZF RECHARGE     =           0.0000
               GW ET     =           0.0000                 GW ET     =           0.0000
     SURFACE LEAKAGE     =           0.0000       SURFACE LEAKAGE     =           0.0000
           AG WELLS      =           0.0000             AG WELLS      =           0.0000

                TOTAL IN =   677614400.0000                  TOTAL IN =          13.1074

          OUT:                                     OUT:
          ----                                     ----
             STORAGE     =   103947656.0000               STORAGE     =           1.4639
       CONSTANT HEAD     =           0.0000         CONSTANT HEAD     =           0.0000
     HEAD DEP BOUNDS     =    13814892.0000       HEAD DEP BOUNDS     =           0.2907
      STREAM LEAKAGE     =   513319040.0000        STREAM LEAKAGE     =          11.3521
        UZF RECHARGE     =           0.0000          UZF RECHARGE     =           0.0000
               GW ET     =     2260364.5000                 GW ET     =           0.0000
     SURFACE LEAKAGE     =           0.0000       SURFACE LEAKAGE     =           0.0000
           AG WELLS      =    44249552.0000             AG WELLS      =           0.0000

               TOTAL OUT =   677591488.0000                 TOTAL OUT =          13.1067

                IN - OUT =       22912.0000                  IN - OUT =       6.8474E-04

     PERCENT DISCREPANCY =           0.00         PERCENT DISCREPANCY =           0.01






         TIME SUMMARY AT END OF TIME STEP   30 IN STRESS PERIOD   19
                    SECONDS     MINUTES      HOURS       DAYS        YEARS
                    -----------------------------------------------------------
   TIME STEP LENGTH  87667.      1461.1      24.352      1.0147     2.77799E-03
 STRESS PERIOD TIME 2.63000E+06  43833.      730.56      30.440     8.33397E-02
         TOTAL TIME 4.74265E+07 7.90442E+05  13174.      548.92      1.5029    
1
1
                            STRESS PERIOD NO.   20, LENGTH =   2630000.    
                            -----------------------------------------------

                              NUMBER OF TIME STEPS =    30

                               MULTIPLIER FOR DELT =     1.000

                            INITIAL TIME STEP SIZE =   87666.66    

 REUSING NON-PARAMETER GHB CELLS FROM LAST STRESS PERIOD

      2 GHB CELLS

 REUSING STREAM SEGMENT DATA FROM LAST STRESS PERIOD



            AREAL INFILTRATION RATE
 READING ON UNIT   19 WITH FORMAT: (10F4.0)            

            1           2           3           4           5           6           7           8           9          10
 ........................................................................................................................
   1   1.2000E-09   0.000       0.000       0.000       0.000       0.000       0.000       0.000       0.000       0.000    
   2   2.1000E-09  2.0000E-09  8.0000E-10  8.5000E-09   0.000       0.000       0.000       0.000       0.000       0.000    
   3   5.0000E-10  1.1000E-09  8.8000E-09  5.5000E-09   0.000       0.000       0.000       0.000       0.000       0.000    
   4   8.5000E-09  1.1000E-09  1.1000E-09  1.1000E-09  2.0000E-09   0.000       0.000       0.000       0.000       0.000    
   5   8.5000E-09  1.1000E-09  1.1000E-09  1.1000E-09  1.1000E-09   0.000       0.000       0.000       0.000       0.000    
   6   8.5000E-09  5.2000E-09  2.1000E-09  1.1000E-09  1.5000E-09   0.000       0.000       0.000       0.000       0.000    
   7   8.5000E-09  5.2000E-09  2.1000E-09  1.2000E-09  2.0000E-09   0.000       0.000       0.000       0.000       0.000    
   8   5.0000E-10  5.2000E-09  2.1000E-09  1.2000E-09  5.0000E-09   0.000       0.000       0.000       0.000       0.000    
   9   5.0000E-10  5.2000E-09  2.1000E-09  1.2000E-09  5.0000E-09   0.000       0.000       0.000       0.000       0.000    
  10   5.0000E-10  5.2000E-09  2.1000E-09  1.2000E-09  5.8000E-09   0.000       0.000       0.000       0.000       0.000    
  11   1.0000E-10  1.1000E-09  1.1000E-09  1.2000E-09  5.0000E-09   0.000       0.000       0.000       0.000       0.000    
  12   1.1000E-09  1.1000E-09  1.1000E-09  1.1000E-09  2.0000E-09   0.000       0.000       0.000       0.000       0.000    
  13   1.1000E-09  2.2000E-09  2.2000E-09  2.1000E-09  1.0000E-09   0.000       0.000       0.000       0.000       0.000    
  14   2.0000E-10  5.5000E-09  5.5000E-09  5.2000E-09  1.0000E-09   0.000       0.000       0.000       0.000       0.000    
  15    0.000      8.8000E-09  8.8000E-09   0.000       0.000       0.000       0.000       0.000       0.000       0.000    

                  ET RATE =  4.000000E-07

 USING ET EXTINCTION DEPTH FROM PREVIOUS STRESS PERIOD. CURRENT PERIOD IS:      20

 USING EXTINCTION WATER CONTENT FROM PREVIOUS STRESS PERIOD. CURRENT PERIOD IS:      20

 USING AIR ENTRY PRESSURE FROM PREVIOUS STRESS PERIOD. CURRENT PERIOD IS:      20

 USING ROOT PRESSURE HEAD FROM PREVIOUS STRESS PERIOD. CURRENT PERIOD IS:      20

 USING ROOT ACTIVITY FROM PREVIOUS STRESS PERIOD. CURRENT PERIOD IS:      20

 PROCESSING AG STRESS PERIOD DATA

 READING AG STRESS PERIOD DATA

 READING IRRIGATION SEGMENT

 READING IRRIGATION WELL

 READING SUPPLEMENTAL WELL

 END PROCESSING AG STRESS PERIOD DATA OPTIONS
 
 SOLVING FOR HEAD 
                                                   Max.-Head-Change                         Max.-Flux-Residual
  Residual-Control   Outer-Iter.   Inner-Iter.     Column Row Layer    Maximum-Head-Change  Column Row Layer    Maximum-Flux-Residual          L2-NORM 
          0                 1           2             4    7     1      -0.4156510667E-01       5    8    1        -0.2181565248E+01      0.5378744416E+01
          0                 2           2             4   13     1      -0.1386466444E-01       4   13    1        -0.8149401788E+00      0.2072528707E+01
          0                 3           2             4    7     1      -0.5769697167E-02       5    8    1        -0.3015275813E+00      0.7546008896E+00
          0                 4           2             4    7     1      -0.2895776663E-02       4    6    1        -0.1512840992E+00      0.3706716318E+00
          0                 5           2             4    7     1      -0.1446781880E-02       5    8    1        -0.7558537189E-01      0.1851431904E+00
          0                 6           2             4    7     1      -0.7235568770E-03       4    6    1        -0.3782459508E-01      0.9260075897E-01
          0                 7           2             4    7     1      -0.5789854890E-03       5    8    1        -0.3024780342E-01      0.7409037234E-01
          0                 8           2             4    7     1      -0.4848865353E-03       4    6    1        -0.2533181128E-01      0.6204978014E-01
          0                 9           2             4    7     1      -0.4038261719E-03       5    8    1        -0.2109696541E-01      0.5167659009E-01
          0                10           2             4    7     1      -0.3365540152E-03       5    8    1        -0.1758248630E-01      0.4306795446E-01
                                                   Max.-Head-Change                         Max.-Flux-Residual
  Residual-Control   Outer-Iter.   Inner-Iter.     Column Row Layer    Maximum-Head-Change  Column Row Layer    Maximum-Flux-Residual          L2-NORM 
          0                11           2             4    7     1      -0.2804577013E-03       5    8    1        -0.1465186399E-01      0.3588945176E-01
          0                12           2             4    7     1      -0.2337128697E-03       5    8    1        -0.1220978819E-01      0.2990763551E-01
          0                13           2             4    7     1      -0.1947631962E-03       5    8    1        -0.1017495252E-01      0.2492334570E-01
          0                14           2             4    7     1      -0.1623039383E-03       5    8    1        -0.8479193659E-02      0.2076961781E-01
          0                15           2             4    7     1      -0.1352470710E-03       5    8    1        -0.7065670165E-02      0.1730721989E-01
          0                16           2             4    7     1      -0.1127110773E-03       5    8    1        -0.5888329323E-02      0.1442334673E-01
          0                17           1             4    7     1      -0.9392614121E-04       5    8    1        -0.4906953771E-02      0.1201948666E-01

    ------------------------------------------------
       NWT REQUIRED           17 OUTER ITERATIONS 
       AND A TOTAL OF         33 INNER ITERATIONS.
    ------------------------------------------------

 OUTPUT CONTROL FOR STRESS PERIOD   20   TIME STEP    1
    PRINT BUDGET
    SAVE BUDGET
    SAVE BUDGET
    SAVE HEAD FOR ALL LAYERS
 UBDSV1 SAVING "         STORAGE" ON UNIT 102 AT TIME STEP  1, STRESS PERIOD  20
 UBDSV2 SAVING "   CONSTANT HEAD" ON UNIT 102 AT TIME STEP  1, STRESS PERIOD  20
 UBDSV1 SAVING "FLOW RIGHT FACE " ON UNIT 102 AT TIME STEP  1, STRESS PERIOD  20
 UBDSV1 SAVING "FLOW FRONT FACE " ON UNIT 102 AT TIME STEP  1, STRESS PERIOD  20

  HEAD DEP BOUNDS   PERIOD   20   STEP     1
 BOUNDARY      1   LAYER   1   ROW    13   COL     1   RATE   -0.290574    
 BOUNDARY      2   LAYER   1   ROW    14   COL     9   RATE    0.285776    



 STREAM LISTING     PERIOD     20   STEP        1

 LAYER ROW COL. STREAM  RCH.  FLOW INTO     FLOW TO   FLOW OUT OF   OVRLND.     DIRECT     STREAM       STREAM     STREAM     STREAM   STREAMBED  STREAMBED
                SEG.NO.  NO.  STRM. RCH.    AQUIFER    STRM. RCH.    RUNOFF     PRECIP       ET          HEAD       DEPTH      WIDTH   CONDCTNC.   GRADIENT

   1    1    1     1     1    4.0501E+01  3.0566E-01   4.0195E+01  0.000E+00  0.000E+00  0.000E+00  1.09438E+03  1.335E+00  1.567E+01  7.051E-02  1.445E+00
   1    2    2     1     2    4.0195E+01  4.7341E-01   3.9722E+01  0.000E+00  0.000E+00  0.000E+00  1.08939E+03  1.332E+00  1.561E+01  1.093E-01  1.444E+00
   1    3    3     1     3    3.9722E+01  4.0378E-01   3.9318E+01  0.000E+00  0.000E+00  0.000E+00  1.08375E+03  1.329E+00  1.555E+01  9.328E-02  1.443E+00
   1    3    4     1     4    3.9318E+01  3.7185E-01   3.8946E+01  0.000E+00  0.000E+00  0.000E+00  1.07873E+03  1.326E+00  1.549E+01  8.596E-02  1.442E+00
   1    4    5     2     1    3.6946E+01  3.5272E-01   3.6593E+01  0.000E+00  0.000E+00  0.000E+00  1.07346E+03  1.522E+00  1.200E+01  7.800E-02  1.507E+00
   1    5    6     2     2    3.6593E+01  2.7086E-01   3.6322E+01  0.000E+00  0.000E+00  0.000E+00  1.06802E+03  1.514E+00  1.200E+01  6.000E-02  1.505E+00
   1    6    6     2     3    3.6322E+01  2.7045E-01   3.6052E+01  0.000E+00  0.000E+00  0.000E+00  1.06330E+03  1.508E+00  1.200E+01  6.000E-02  1.503E+00
   1    7    6     2     4    3.6052E+01  2.7005E-01   3.5782E+01  0.000E+00  0.000E+00  0.000E+00  1.05858E+03  1.501E+00  1.200E+01  6.000E-02  1.500E+00
   1    8    6     2     5    3.5782E+01  2.6964E-01   3.5512E+01  0.000E+00  0.000E+00  0.000E+00  1.05385E+03  1.494E+00  1.200E+01  6.000E-02  1.498E+00
   1    3    5     3     1    2.0000E+00  2.8252E-01   1.7175E+00  0.000E+00  0.000E+00  0.000E+00  1.07555E+03  1.909E+00  9.636E+00  7.227E-02  1.955E+00
   1    3    6     3     2    1.7175E+00  2.4905E-01   1.4684E+00  0.000E+00  0.000E+00  0.000E+00  1.07264E+03  1.727E+00  8.909E+00  6.682E-02  1.864E+00
   1    3    7     3     3    1.4684E+00  1.9718E-01   1.2712E+00  0.000E+00  0.000E+00  0.000E+00  1.06987E+03  1.555E+00  8.218E+00  5.547E-02  1.777E+00
   1    4    8     3     4    1.2712E+00  2.2567E-01   1.0456E+00  0.000E+00  0.000E+00  0.000E+00  1.06682E+03  1.364E+00  7.455E+00  6.709E-02  1.682E+00
   1    5    8     3     5    1.0456E+00  1.5790E-01   8.8768E-01  0.000E+00  0.000E+00  0.000E+00  1.06362E+03  1.164E+00  6.655E+00  4.991E-02  1.582E+00
   1    6    8     3     6    8.8768E-01  5.5980E-02   8.3170E-01  0.000E+00  0.000E+00  0.000E+00  1.06158E+03  1.036E+00  6.145E+00  1.844E-02  1.518E+00
   1    5   10     4     1    1.0000E+01  9.0919E-02   9.9091E+00  0.000E+00  0.000E+00  0.000E+00  1.07836E+03  6.368E-01  1.000E+01  2.500E-02  1.212E+00
   1    5    9     4     2    9.9091E+00  1.8158E-01   9.7275E+00  0.000E+00  0.000E+00  0.000E+00  1.07154E+03  6.315E-01  1.000E+01  5.000E-02  1.211E+00
   1    6    8     4     3    9.7275E+00  1.2689E-01   9.6006E+00  0.000E+00  0.000E+00  0.000E+00  1.06381E+03  6.256E-01  1.000E+01  3.500E-02  1.209E+00
   1    6    8     5     1    1.0432E+01  2.2686E-01   1.0205E+01  0.000E+00  0.000E+00  0.000E+00  1.05868E+03  6.790E-01  1.542E+01  6.166E-02  1.226E+00
   1    7    7     5     2    1.0205E+01  2.7894E-01   9.9265E+00  0.000E+00  0.000E+00  0.000E+00  1.05417E+03  6.732E-01  1.519E+01  7.594E-02  1.224E+00
   1    8    7     5     3    9.9265E+00  1.9221E-01   9.7343E+00  0.000E+00  0.000E+00  0.000E+00  1.04992E+03  6.676E-01  1.497E+01  5.241E-02  1.223E+00
   1    8    6     5     4    9.7343E+00  1.3577E-01   9.5985E+00  0.000E+00  0.000E+00  0.000E+00  1.04691E+03  6.637E-01  1.482E+01  3.706E-02  1.221E+00
   1    9    6     6     1    9.5985E+00  2.2097E-01   9.3776E+00  0.000E+00  0.000E+00  0.000E+00  1.04341E+03  6.828E-01  1.200E+01  6.000E-02  1.228E+00
   1   10    7     6     2    9.3776E+00  2.2039E-01   9.1572E+00  0.000E+00  0.000E+00  0.000E+00  1.03885E+03  6.732E-01  1.200E+01  6.000E-02  1.224E+00
   1   11    7     6     3    9.1572E+00  2.1981E-01   8.9374E+00  0.000E+00  0.000E+00  0.000E+00  1.03430E+03  6.636E-01  1.200E+01  6.000E-02  1.221E+00
   1   12    7     6     4    8.9374E+00  2.1923E-01   8.7181E+00  0.000E+00  0.000E+00  0.000E+00  1.02974E+03  6.539E-01  1.200E+01  6.000E-02  1.218E+00
   1   13    7     6     5    8.7181E+00 -1.4178E-01   8.8599E+00  0.000E+00  0.000E+00  0.000E+00  1.02656E+03  6.521E-01  1.200E+01  2.400E-01 -1.969E-01
   1   14    9     7     1    1.5000E+02  1.3361E+00   1.4866E+02  0.000E+00  0.000E+00  0.000E+00  1.03987E+03  2.288E+00  5.529E+01  5.593E-01  7.963E-01
   1   13    8     7     2    1.4866E+02  1.8167E+00   1.4685E+02  0.000E+00  0.000E+00  0.000E+00  1.03478E+03  2.279E+00  5.526E+01  6.148E-01  9.850E-01
   1   13    7     7     3    1.4685E+02  1.4174E+00   1.4543E+02  0.000E+00  0.000E+00  0.000E+00  1.02969E+03  2.271E+00  5.522E+01  5.585E-01  8.460E-01
   1   13    6     8     1    1.5429E+02  7.8308E-01   1.5351E+02  0.000E+00  0.000E+00  0.000E+00  1.02472E+03  2.844E+00  4.124E+01  4.202E-01  6.211E-01
   1   13    5     8     2    1.5351E+02  6.1971E-02   1.5344E+02  0.000E+00  0.000E+00  0.000E+00  1.01847E+03  2.841E+00  4.120E+01  4.198E-01  4.921E-02
   1   13    4     8     3    1.5344E+02 -2.9926E+00   1.5644E+02  0.000E+00  0.000E+00  0.000E+00  1.01223E+03  2.851E+00  4.134E+01  4.213E+00 -2.368E-01
   1   13    3     8     4    1.5644E+02 -4.0500E+00   1.6049E+02  0.000E+00  0.000E+00  0.000E+00  1.00600E+03  2.875E+00  4.169E+01  4.249E+00 -3.177E-01
   1   13    2     8     5    1.6049E+02 -2.9410E+00   1.6343E+02  0.000E+00  0.000E+00  0.000E+00  9.99774E+02  2.899E+00  4.204E+01  4.284E+00 -2.289E-01
   1   13    1     8     6    1.6343E+02 -2.2117E+00   1.6564E+02  0.000E+00  0.000E+00  0.000E+00  9.94791E+02  2.916E+00  4.229E+01  2.585E+00 -2.851E-01
   1    8    6     9     1    3.5512E+01  0.0000E+00   3.5512E+01  0.000E+00  0.000E+00  0.000E+00  1.08360E+03  4.847E+00  4.000E+00  0.000E+00  2.616E+00
   1    8    5     9     2    3.5512E+01  0.0000E+00   3.5512E+01  0.000E+00  0.000E+00  0.000E+00  1.08310E+03  4.847E+00  4.000E+00  0.000E+00  2.616E+00



 UBDSV3 SAVING "           GW ET" ON UNIT  61 AT TIME STEP  1, STRESS PERIOD  20
 UBDSV3 SAVING "    UZF RECHARGE" ON UNIT  61 AT TIME STEP  1, STRESS PERIOD  20
 UBDSV3 SAVING " SURFACE LEAKAGE" ON UNIT  61 AT TIME STEP  1, STRESS PERIOD  20
 UBDSV3 SAVING "       HORT+DUNN" ON UNIT  61 AT TIME STEP  1, STRESS PERIOD  20
 UBDSV3 SAVING "  STORAGE CHANGE" ON UNIT  61 AT TIME STEP  1, STRESS PERIOD  20


UNSATURATED ZONE PACKAGE VOLUMETRIC BUDGET FOR  TIME STEP     1 STRESS PERIOD   20
  ------------------------------------------------------------------------------



     CUMULATIVE VOLUMES      L**3       RATES FOR THIS TIME STEP      L**3/T
     ------------------                 ------------------------

           IN:                                      IN:
           ---                                      ---
        INFILTRATION =   699412888.7288          INFILTRATION =          63.3463

          OUT:                                     OUT:
          ----                                     ----
              UZF ET =   641487660.0006                UZF ET =          64.0800
        UZF RECHARGE =      654716.9165          UZF RECHARGE =       0.0000E+00

            IN - OUT =    57270511.8116              IN - OUT =          -0.7338

          STORAGE:                                 STORAGE:
          --------                                 --------
      STORAGE CHANGE =    57271106.2445        STORAGE CHANGE =          -0.7338

 PERCENT DISCREPANCY IS DIFFERENCE BETWEEN IN-OUT MINUS CHANGE IN STORAGE
 DIVIDED BY THE AVERAGE OF IN AND OUT TIMES 100

 PERCENT DISCREPANCY =          -0.00     PERCENT DISCREPANCY =           0.00






 

            AG WELLS      PERIOD   20   STEP   1
 AG WELL      1   LAYER   1   ROW     6   COL     4   RATE    -3.90431    
 AG WELL      2   LAYER   1   ROW     6   COL     5   RATE    -3.90431    
 AG WELL      3   LAYER   1   ROW     7   COL     4   RATE    -3.90431    
 AG WELL      4   LAYER   1   ROW     7   COL     5   RATE    -3.90431    
 AG WELL      5   LAYER   1   ROW     8   COL     4   RATE    -3.90431    
 AG WELL      6   LAYER   1   ROW     8   COL     5   RATE    -3.90431    
 
 

   DIVERSION SEGMENTS     PERIOD   20   STEP   1
 SEGMENT      9   RATE     35.5122    
 
 

        SW IRRIGATION     PERIOD   20   STEP   1
 SEGMENT      9   ROW     6   COL     4   RATE     5.91882    
 SEGMENT      9   ROW     6   COL     5   RATE     5.91882    
 SEGMENT      9   ROW     7   COL     4   RATE     5.91882    
 SEGMENT      9   ROW     7   COL     5   RATE     5.91882    
 SEGMENT      9   ROW     8   COL     4   RATE     5.91882    
 SEGMENT      9   ROW     8   COL     5   RATE     5.91882    
 
 

        GW IRRIGATION     PERIOD   20   STEP   1
 AG WELL      1   ROW     6   COL     4   RATE     3.90431    
 AG WELL      2   ROW     6   COL     5   RATE     3.90431    
 AG WELL      3   ROW     7   COL     4   RATE     3.90431    
 AG WELL      4   ROW     7   COL     5   RATE     3.90431    
 AG WELL      5   ROW     8   COL     4   RATE     3.90431    
 AG WELL      6   ROW     8   COL     5   RATE     3.90431    
 
1
  VOLUMETRIC BUDGET FOR AGRICULTURAL FIELDS AT TIME STEP    1, STRESS PERIOD  20
  ------------------------------------------------------------------------------

     CUMULATIVE VOLUMES      L**3       RATES FOR THIS TIME STEP      L**3/T
     ------------------                 ------------------------

           IN:                                      IN:
           ---                                      ---
               AG WELLS  =    46303220.0000                 AG WELLS  =          23.4259
      DIVERSION SEGMENTS =   443990144.0000        DIVERSION SEGMENTS =          35.5122
           GW IRRIGATION =           0.0000             GW IRRIGATION =           0.0000
           SW IRRIGATION =           0.0000             SW IRRIGATION =           0.0000
        SYSTEM LOSSES GW =           0.0000          SYSTEM LOSSES GW =           0.0000
        SYSTEM LOSSES SW =           0.0000          SYSTEM LOSSES SW =           0.0000

                TOTAL IN =   490293376.0000                  TOTAL IN =          58.9381

          OUT:                                     OUT:
          ----                                     ----
               AG WELLS  =           0.0000                 AG WELLS  =           0.0000
      DIVERSION SEGMENTS =           0.0000        DIVERSION SEGMENTS =           0.0000
           GW IRRIGATION =    46303220.0000             GW IRRIGATION =          23.4259
           SW IRRIGATION =   443999104.0000             SW IRRIGATION =          35.5129
        SYSTEM LOSSES GW =           0.0000          SYSTEM LOSSES GW =           0.0000
        SYSTEM LOSSES SW =           0.0000          SYSTEM LOSSES SW =           0.0000

               TOTAL OUT =   490302336.0000                 TOTAL OUT =          58.9388

                IN - OUT =       -8960.0000                  IN - OUT =      -7.0953E-04

     PERCENT DISCREPANCY =          -0.00         PERCENT DISCREPANCY =          -0.00




 HEAD WILL BE SAVED ON UNIT   62 AT END OF TIME STEP    1, STRESS PERIOD   20
1
  VOLUMETRIC BUDGET FOR ENTIRE MODEL AT END OF TIME STEP    1, STRESS PERIOD  20
  ------------------------------------------------------------------------------

     CUMULATIVE VOLUMES      L**3       RATES FOR THIS TIME STEP      L**3/T
     ------------------                 ------------------------

           IN:                                      IN:
           ---                                      ---
             STORAGE     =    95491464.0000               STORAGE     =          25.0290
       CONSTANT HEAD     =           0.0000         CONSTANT HEAD     =           0.0000
     HEAD DEP BOUNDS     =    13577151.0000       HEAD DEP BOUNDS     =           0.2858
      STREAM LEAKAGE     =   571134784.0000        STREAM LEAKAGE     =          11.6855
        UZF RECHARGE     =      654716.8125          UZF RECHARGE     =           0.0000
               GW ET     =           0.0000                 GW ET     =           0.0000
     SURFACE LEAKAGE     =           0.0000       SURFACE LEAKAGE     =           0.0000
           AG WELLS      =           0.0000             AG WELLS      =           0.0000

                TOTAL IN =   680858112.0000                  TOTAL IN =          37.0003

          OUT:                                     OUT:
          ----                                     ----
             STORAGE     =   104030392.0000               STORAGE     =           0.9438
       CONSTANT HEAD     =           0.0000         CONSTANT HEAD     =           0.0000
     HEAD DEP BOUNDS     =    13840366.0000       HEAD DEP BOUNDS     =           0.2906
      STREAM LEAKAGE     =   514400608.0000        STREAM LEAKAGE     =          12.3371
        UZF RECHARGE     =           0.0000          UZF RECHARGE     =           0.0000
               GW ET     =     2260364.5000                 GW ET     =           0.0000
     SURFACE LEAKAGE     =           0.0000       SURFACE LEAKAGE     =           0.0000
           AG WELLS      =    46303220.0000             AG WELLS      =          23.4259

               TOTAL OUT =   680834944.0000                 TOTAL OUT =          36.9973

                IN - OUT =       23168.0000                  IN - OUT =       2.9373E-03

     PERCENT DISCREPANCY =           0.00         PERCENT DISCREPANCY =           0.01






         TIME SUMMARY AT END OF TIME STEP    1 IN STRESS PERIOD   20
                    SECONDS     MINUTES      HOURS       DAYS        YEARS
                    -----------------------------------------------------------
   TIME STEP LENGTH  87667.      1461.1      24.352      1.0147     2.77799E-03
 STRESS PERIOD TIME  87667.      1461.1      24.352      1.0147     2.77799E-03
         TOTAL TIME 4.75142E+07 7.91903E+05  13198.      549.93      1.5056    
1
 
 SOLVING FOR HEAD 
                                                   Max.-Head-Change                         Max.-Flux-Residual
  Residual-Control   Outer-Iter.   Inner-Iter.     Column Row Layer    Maximum-Head-Change  Column Row Layer    Maximum-Flux-Residual          L2-NORM 
          0                 1           2             4    7     1      -0.7528610328E-01       4    7    1        -0.3934973769E+01      0.9550761982E+01
          0                 2           2             4   13     1      -0.1395138046E-01       4   13    1        -0.8200538610E+00      0.1709410653E+01
          0                 3           2             7   13     1      -0.2112191645E-02       7   13    1        -0.1178127346E+00      0.1761709011E+00
          0                 4           2             7   13     1       0.1437628635E-03       7   13    1         0.8238682461E-02      0.1485601646E-01
          0                 5           1             4    7     1      -0.8961210971E-04       4    7    1        -0.4947307576E-02      0.1212151300E-01

    ------------------------------------------------
       NWT REQUIRED            5 OUTER ITERATIONS 
       AND A TOTAL OF          9 INNER ITERATIONS.
    ------------------------------------------------

 NO OUTPUT CONTROL FOR STRESS PERIOD   20   TIME STEP    2
 
 SOLVING FOR HEAD 
                                                   Max.-Head-Change                         Max.-Flux-Residual
  Residual-Control   Outer-Iter.   Inner-Iter.     Column Row Layer    Maximum-Head-Change  Column Row Layer    Maximum-Flux-Residual          L2-NORM 
          0                 1           2             4    7     1      -0.7480696752E-01       4    7    1        -0.3911588247E+01      0.9378524801E+01
          0                 2           2             4   13     1      -0.1403016685E-01       4   13    1        -0.8246984904E+00      0.1705405940E+01
          0                 3           2             7   13     1      -0.2101709460E-02       7   13    1        -0.1172288916E+00      0.1754373383E+00
          0                 4           2             7   13     1       0.1430528911E-03       7   13    1         0.8198023004E-02      0.1490567361E-01
          0                 5           1             4    7     1      -0.8983874931E-04       4    7    1        -0.4957113066E-02      0.1214483547E-01

    ------------------------------------------------
       NWT REQUIRED            5 OUTER ITERATIONS 
       AND A TOTAL OF          9 INNER ITERATIONS.
    ------------------------------------------------

 NO OUTPUT CONTROL FOR STRESS PERIOD   20   TIME STEP    3
 
 SOLVING FOR HEAD 
                                                   Max.-Head-Change                         Max.-Flux-Residual
  Residual-Control   Outer-Iter.   Inner-Iter.     Column Row Layer    Maximum-Head-Change  Column Row Layer    Maximum-Flux-Residual          L2-NORM 
          0                 1           2             4    7     1      -0.7438256064E-01       4    7    1        -0.3888962153E+01      0.9216512999E+01
          0                 2           2             4   13     1      -0.1410169751E-01       4   13    1        -0.8289140403E+00      0.1702692744E+01
          0                 3           2             7   13     1      -0.2091553126E-02       7   13    1        -0.1166632061E+00      0.1747751727E+00
          0                 4           2             7   13     1       0.1423612527E-03       7   13    1         0.8158415707E-02      0.1490259509E-01
          0                 5           1             4    7     1      -0.8965783326E-04       4    7    1        -0.4947122715E-02      0.1211838270E-01

    ------------------------------------------------
       NWT REQUIRED            5 OUTER ITERATIONS 
       AND A TOTAL OF          9 INNER ITERATIONS.
    ------------------------------------------------

 NO OUTPUT CONTROL FOR STRESS PERIOD   20   TIME STEP    4
 
 SOLVING FOR HEAD 
                                                   Max.-Head-Change                         Max.-Flux-Residual
  Residual-Control   Outer-Iter.   Inner-Iter.     Column Row Layer    Maximum-Head-Change  Column Row Layer    Maximum-Flux-Residual          L2-NORM 
          0                 1           2             4    7     1      -0.7389267913E-01       4    7    1        -0.3864863164E+01      0.9062642889E+01
          0                 2           2             4   13     1      -0.1416665415E-01       4   13    1        -0.8327408926E+00      0.1699723363E+01
          0                 3           2             7   13     1      -0.2081715419E-02       7   13    1        -0.1161152696E+00      0.1741128585E+00
          0                 4           2             7   13     1       0.1416900637E-03       7   13    1         0.8119977731E-02      0.1490263159E-01
          0                 5           1             4    7     1      -0.8947908920E-04       4    7    1        -0.4937273207E-02      0.1209298630E-01

    ------------------------------------------------
       NWT REQUIRED            5 OUTER ITERATIONS 
       AND A TOTAL OF          9 INNER ITERATIONS.
    ------------------------------------------------

 NO OUTPUT CONTROL FOR STRESS PERIOD   20   TIME STEP    5
 
 SOLVING FOR HEAD 
                                                   Max.-Head-Change                         Max.-Flux-Residual
  Residual-Control   Outer-Iter.   Inner-Iter.     Column Row Layer    Maximum-Head-Change  Column Row Layer    Maximum-Flux-Residual          L2-NORM 
          0                 1           2             4    7     1      -0.7337911219E-01       4    7    1        -0.3839402272E+01      0.8917026925E+01
          0                 2           2             4   13     1      -0.1422574587E-01       4   13    1        -0.8362210782E+00      0.1696888372E+01
          0                 3           2             7   13     1      -0.2072179274E-02       7   13    1        -0.1155841382E+00      0.1734719976E+00
          0                 4           2             7   13     1       0.1410417973E-03       7   13    1         0.8082852968E-02      0.1489847528E-01
          0                 5           1             4    7     1      -0.8930113044E-04       4    7    1        -0.4927465355E-02      0.1206779029E-01

    ------------------------------------------------
       NWT REQUIRED            5 OUTER ITERATIONS 
       AND A TOTAL OF          9 INNER ITERATIONS.
    ------------------------------------------------

 NO OUTPUT CONTROL FOR STRESS PERIOD   20   TIME STEP    6
 
 SOLVING FOR HEAD 
                                                   Max.-Head-Change                         Max.-Flux-Residual
  Residual-Control   Outer-Iter.   Inner-Iter.     Column Row Layer    Maximum-Head-Change  Column Row Layer    Maximum-Flux-Residual          L2-NORM 
          0                 1           2             4    7     1      -0.7284455736E-01       4    7    1        -0.3812727155E+01      0.8778294921E+01
          0                 2           2             4   13     1      -0.1427948880E-01       4   13    1        -0.8393852024E+00      0.1694177108E+01
          0                 3           2             7   13     1      -0.2062936479E-02       7   13    1        -0.1150693520E+00      0.1728519676E+00
          0                 4           2             7   13     1       0.1404126573E-03       7   13    1         0.8046826444E-02      0.1489515293E-01
          0                 5           1             4    7     1      -0.8912226591E-04       4    7    1        -0.4917606756E-02      0.1204257389E-01

    ------------------------------------------------
       NWT REQUIRED            5 OUTER ITERATIONS 
       AND A TOTAL OF          9 INNER ITERATIONS.
    ------------------------------------------------

 NO OUTPUT CONTROL FOR STRESS PERIOD   20   TIME STEP    7
 
 SOLVING FOR HEAD 
                                                   Max.-Head-Change                         Max.-Flux-Residual
  Residual-Control   Outer-Iter.   Inner-Iter.     Column Row Layer    Maximum-Head-Change  Column Row Layer    Maximum-Flux-Residual          L2-NORM 
          0                 1           2             4    7     1      -0.7229075193E-01       4    7    1        -0.3784935150E+01      0.8645909856E+01
          0                 2           2             4   13     1      -0.1432842652E-01       4   13    1        -0.8422654157E+00      0.1691576407E+01
          0                 3           2             7   13     1      -0.2053973111E-02       7   13    1        -0.1145701629E+00      0.1722527552E+00
          0                 4           2             7   13     1       0.1398029794E-03       7   13    1         0.8011888355E-02      0.1489124098E-01
          0                 5           1             4    7     1      -0.8894319121E-04       4    7    1        -0.4907735270E-02      0.1201742945E-01

    ------------------------------------------------
       NWT REQUIRED            5 OUTER ITERATIONS 
       AND A TOTAL OF          9 INNER ITERATIONS.
    ------------------------------------------------

 NO OUTPUT CONTROL FOR STRESS PERIOD   20   TIME STEP    8
 
 SOLVING FOR HEAD 
                                                   Max.-Head-Change                         Max.-Flux-Residual
  Residual-Control   Outer-Iter.   Inner-Iter.     Column Row Layer    Maximum-Head-Change  Column Row Layer    Maximum-Flux-Residual          L2-NORM 
          0                 1           2             4    7     1      -0.7172012619E-01       4    7    1        -0.3756159841E+01      0.8519420089E+01
          0                 2           2             4   13     1      -0.1437300660E-01       4   13    1        -0.8448882876E+00      0.1687310033E+01
          0                 3           2             7   13     1      -0.2045276649E-02       7   13    1        -0.1140858109E+00      0.1713600368E+00
          0                 4           2             7   13     1       0.1392106022E-03       7   13    1         0.7977960255E-02      0.1452151594E-01
          0                 5           1             4    7     1      -0.8579487825E-04       4    7    1        -0.4734029277E-02      0.1159122932E-01

    ------------------------------------------------
       NWT REQUIRED            5 OUTER ITERATIONS 
       AND A TOTAL OF          9 INNER ITERATIONS.
    ------------------------------------------------

 NO OUTPUT CONTROL FOR STRESS PERIOD   20   TIME STEP    9
 
 SOLVING FOR HEAD 
                                                   Max.-Head-Change                         Max.-Flux-Residual
  Residual-Control   Outer-Iter.   Inner-Iter.     Column Row Layer    Maximum-Head-Change  Column Row Layer    Maximum-Flux-Residual          L2-NORM 
          0                 1           2             4    7     1      -0.7113436872E-01       4    7    1        -0.3726496448E+01      0.8398346570E+01
          0                 2           2             4   13     1      -0.1441358421E-01       4   13    1        -0.8472748380E+00      0.1676445204E+01
          0                 3           2             7   13     1      -0.2036840372E-02       7   13    1        -0.1136159552E+00      0.1720886715E+00
          0                 4           2             7   13     1       0.1386359932E-03       7   13    1         0.7945059388E-02      0.1175700099E-01
          0                 5           1             4    7     1      -0.6355368750E-04       4    7    1        -0.3506839716E-02      0.8586091436E-02

    ------------------------------------------------
       NWT REQUIRED            5 OUTER ITERATIONS 
       AND A TOTAL OF          9 INNER ITERATIONS.
    ------------------------------------------------

 NO OUTPUT CONTROL FOR STRESS PERIOD   20   TIME STEP   10
 
 SOLVING FOR HEAD 
                                                   Max.-Head-Change                         Max.-Flux-Residual
  Residual-Control   Outer-Iter.   Inner-Iter.     Column Row Layer    Maximum-Head-Change  Column Row Layer    Maximum-Flux-Residual          L2-NORM 
          0                 1           2             4    7     1      -0.7053373896E-01       4    7    1        -0.3695967187E+01      0.8281986042E+01
          0                 2           2             4   13     1      -0.1445064151E-01       4   13    1        -0.8494535622E+00      0.1668364543E+01
          0                 3           2             7   13     1      -0.2028652965E-02       7   13    1        -0.1131599659E+00      0.1740484476E+00
          0                 4           2             7   13     1       0.1380791176E-03       7   13    1         0.7913171230E-02      0.1390785244E-01
          0                 5           1             4    7     1      -0.4854407747E-04       4    7    1        -0.2678663821E-02      0.6558658133E-02

    ------------------------------------------------
       NWT REQUIRED            5 OUTER ITERATIONS 
       AND A TOTAL OF          9 INNER ITERATIONS.
    ------------------------------------------------

 NO OUTPUT CONTROL FOR STRESS PERIOD   20   TIME STEP   11
 
 SOLVING FOR HEAD 
                                                   Max.-Head-Change                         Max.-Flux-Residual
  Residual-Control   Outer-Iter.   Inner-Iter.     Column Row Layer    Maximum-Head-Change  Column Row Layer    Maximum-Flux-Residual          L2-NORM 
          0                 1           2             4    7     1      -0.6991936030E-01       4    7    1        -0.3664637177E+01      0.8169880973E+01
          0                 2           2             4   13     1      -0.1448448516E-01       4   13    1        -0.8514426721E+00      0.1663581540E+01
          0                 3           2             7   13     1      -0.2020702294E-02       7   13    1        -0.1127171655E+00      0.1747207510E+00
          0                 4           2             7   13     1       0.1375374453E-03       7   13    1         0.7882153830E-02      0.1504332224E-01
          0                 5           1             4    7     1      -0.5377613107E-04       4    7    1        -0.2967357206E-02      0.7264299012E-02

    ------------------------------------------------
       NWT REQUIRED            5 OUTER ITERATIONS 
       AND A TOTAL OF          9 INNER ITERATIONS.
    ------------------------------------------------

 NO OUTPUT CONTROL FOR STRESS PERIOD   20   TIME STEP   12
 
 SOLVING FOR HEAD 
                                                   Max.-Head-Change                         Max.-Flux-Residual
  Residual-Control   Outer-Iter.   Inner-Iter.     Column Row Layer    Maximum-Head-Change  Column Row Layer    Maximum-Flux-Residual          L2-NORM 
          0                 1           2             4    7     1      -0.6929359344E-01       4    7    1        -0.3632632061E+01      0.8061984628E+01
          0                 2           2             4   13     1      -0.1451538493E-01       4   13    1        -0.8532580854E+00      0.1661296705E+01
          0                 3           2             7   13     1      -0.2012982568E-02       7   13    1        -0.1122872323E+00      0.1743083312E+00
          0                 4           2             7   13     1       0.1370117831E-03       7   13    1         0.7852050011E-02      0.1518432801E-01
          0                 5           1             4    7     1      -0.5436209754E-04       4    7    1        -0.2999694046E-02      0.7342799506E-02

    ------------------------------------------------
       NWT REQUIRED            5 OUTER ITERATIONS 
       AND A TOTAL OF          9 INNER ITERATIONS.
    ------------------------------------------------

 NO OUTPUT CONTROL FOR STRESS PERIOD   20   TIME STEP   13
 
 SOLVING FOR HEAD 
                                                   Max.-Head-Change                         Max.-Flux-Residual
  Residual-Control   Outer-Iter.   Inner-Iter.     Column Row Layer    Maximum-Head-Change  Column Row Layer    Maximum-Flux-Residual          L2-NORM 
          0                 1           2             4    7     1      -0.6865966924E-01       4    7    1        -0.3600125567E+01      0.7958268636E+01
          0                 2           2             4   13     1      -0.1454359422E-01       4   13    1        -0.8549148252E+00      0.1659300921E+01
          0                 3           2             7   13     1      -0.2005484091E-02       7   13    1        -0.1118696259E+00      0.1738012121E+00
          0                 4           2             7   13     1       0.1365033133E-03       7   13    1         0.7822935209E-02      0.1522440030E-01
          0                 5           1             4    7     1      -0.5444999637E-04       4    7    1        -0.3004548229E-02      0.7354120868E-02

    ------------------------------------------------
       NWT REQUIRED            5 OUTER ITERATIONS 
       AND A TOTAL OF          9 INNER ITERATIONS.
    ------------------------------------------------

 NO OUTPUT CONTROL FOR STRESS PERIOD   20   TIME STEP   14
 
 SOLVING FOR HEAD 
                                                   Max.-Head-Change                         Max.-Flux-Residual
  Residual-Control   Outer-Iter.   Inner-Iter.     Column Row Layer    Maximum-Head-Change  Column Row Layer    Maximum-Flux-Residual          L2-NORM 
          0                 1           2             4    7     1      -0.6802007138E-01       4    7    1        -0.3567250985E+01      0.7858656240E+01
          0                 2           2             4   13     1      -0.1456942555E-01       4   13    1        -0.8564313659E+00      0.1657399184E+01
          0                 3           2             7   13     1      -0.1998197407E-02       7   13    1        -0.1114638201E+00      0.1732920230E+00
          0                 4           2             7   13     1       0.1360078434E-03       7   13    1         0.7794562948E-02      0.1524917735E-01
          0                 5           1             4    7     1      -0.5447421632E-04       4    7    1        -0.3005887904E-02      0.7356888610E-02

    ------------------------------------------------
       NWT REQUIRED            5 OUTER ITERATIONS 
       AND A TOTAL OF          9 INNER ITERATIONS.
    ------------------------------------------------

 NO OUTPUT CONTROL FOR STRESS PERIOD   20   TIME STEP   15
 
 SOLVING FOR HEAD 
                                                   Max.-Head-Change                         Max.-Flux-Residual
  Residual-Control   Outer-Iter.   Inner-Iter.     Column Row Layer    Maximum-Head-Change  Column Row Layer    Maximum-Flux-Residual          L2-NORM 
          0                 1           2             4    7     1      -0.6737552214E-01       4    7    1        -0.3534051714E+01      0.7762805537E+01
          0                 2           2             4   13     1      -0.1459306716E-01       4   13    1        -0.8578188284E+00      0.1655560498E+01
          0                 3           2             7   13     1      -0.1991112377E-02       7   13    1        -0.1110692486E+00      0.1727906096E+00
          0                 4           2             7   13     1       0.1355243310E-03       7   13    1         0.7766876155E-02      0.1526578526E-01
          0                 5           1             4    7     1      -0.5447513676E-04       4    7    1        -0.3005941127E-02      0.7356560966E-02

    ------------------------------------------------
       NWT REQUIRED            5 OUTER ITERATIONS 
       AND A TOTAL OF          9 INNER ITERATIONS.
    ------------------------------------------------

 NO OUTPUT CONTROL FOR STRESS PERIOD   20   TIME STEP   16
 
 SOLVING FOR HEAD 
                                                   Max.-Head-Change                         Max.-Flux-Residual
  Residual-Control   Outer-Iter.   Inner-Iter.     Column Row Layer    Maximum-Head-Change  Column Row Layer    Maximum-Flux-Residual          L2-NORM 
          0                 1           2             4    7     1      -0.6672623259E-01       4    7    1        -0.3500542005E+01      0.7670411070E+01
          0                 2           2             4   13     1      -0.1461475467E-01       4   13    1        -0.8590911184E+00      0.1653765834E+01
          0                 3           2             7   13     1      -0.1984227215E-02       7   13    1        -0.1106858199E+00      0.1723034262E+00
          0                 4           2             7   13     1       0.1350566744E-03       7   13    1         0.7740548068E-02      0.1528115286E-01
          0                 5           1             4    7     1      -0.5449364260E-04       4    7    1        -0.3006963847E-02      0.7358665538E-02

    ------------------------------------------------
       NWT REQUIRED            5 OUTER ITERATIONS 
       AND A TOTAL OF          9 INNER ITERATIONS.
    ------------------------------------------------

 NO OUTPUT CONTROL FOR STRESS PERIOD   20   TIME STEP   17
 
 SOLVING FOR HEAD 
                                                   Max.-Head-Change                         Max.-Flux-Residual
  Residual-Control   Outer-Iter.   Inner-Iter.     Column Row Layer    Maximum-Head-Change  Column Row Layer    Maximum-Flux-Residual          L2-NORM 
          0                 1           2             4    7     1      -0.6607390461E-01       4    7    1        -0.3466816580E+01      0.7581281295E+01
          0                 2           2             4   13     1      -0.1463462100E-01       4   13    1        -0.8602561847E+00      0.1652008825E+01
          0                 3           2             7   13     1      -0.1977526923E-02       7   13    1        -0.1103126940E+00      0.1718302034E+00
          0                 4           2             7   13     1       0.1346000006E-03       7   13    1         0.7714400289E-02      0.1529998819E-01
          0                 5           1             4    7     1      -0.5450243021E-04       4    7    1        -0.3007449593E-02      0.7359492165E-02

    ------------------------------------------------
       NWT REQUIRED            5 OUTER ITERATIONS 
       AND A TOTAL OF          9 INNER ITERATIONS.
    ------------------------------------------------

 NO OUTPUT CONTROL FOR STRESS PERIOD   20   TIME STEP   18
 
 SOLVING FOR HEAD 
                                                   Max.-Head-Change                         Max.-Flux-Residual
  Residual-Control   Outer-Iter.   Inner-Iter.     Column Row Layer    Maximum-Head-Change  Column Row Layer    Maximum-Flux-Residual          L2-NORM 
          0                 1           2             4    7     1      -0.6541930536E-01       4    7    1        -0.3432918851E+01      0.7495225855E+01
          0                 2           2             4   13     1      -0.1465285094E-01       4   13    1        -0.8613248376E+00      0.1650289581E+01
          0                 3           2             7   13     1      -0.1971012132E-02       7   13    1        -0.1099498964E+00      0.1713659492E+00
          0                 4           2             7   13     1       0.1341558736E-03       7   13    1         0.7688970582E-02      0.1531604351E-01
          0                 5           1             4    7     1      -0.5448558798E-04       4    7    1        -0.3006520487E-02      0.7356900568E-02

    ------------------------------------------------
       NWT REQUIRED            5 OUTER ITERATIONS 
       AND A TOTAL OF          9 INNER ITERATIONS.
    ------------------------------------------------

 NO OUTPUT CONTROL FOR STRESS PERIOD   20   TIME STEP   19
 
 SOLVING FOR HEAD 
                                                   Max.-Head-Change                         Max.-Flux-Residual
  Residual-Control   Outer-Iter.   Inner-Iter.     Column Row Layer    Maximum-Head-Change  Column Row Layer    Maximum-Flux-Residual          L2-NORM 
          0                 1           2             4    7     1      -0.6476341220E-01       4    7    1        -0.3398903868E+01      0.7412071891E+01
          0                 2           2             4   13     1      -0.1466961030E-01       4   13    1        -0.8623069511E+00      0.1648608467E+01
          0                 3           2             7   13     1      -0.1964673783E-02       7   13    1        -0.1095969287E+00      0.1709152823E+00
          0                 4           2             7   13     1       0.1337263171E-03       7   13    1         0.7664374450E-02      0.1533204094E-01
          0                 5           1             4    7     1      -0.5449467593E-04       4    7    1        -0.3007021466E-02      0.7357853795E-02

    ------------------------------------------------
       NWT REQUIRED            5 OUTER ITERATIONS 
       AND A TOTAL OF          9 INNER ITERATIONS.
    ------------------------------------------------

 NO OUTPUT CONTROL FOR STRESS PERIOD   20   TIME STEP   20
 
 SOLVING FOR HEAD 
                                                   Max.-Head-Change                         Max.-Flux-Residual
  Residual-Control   Outer-Iter.   Inner-Iter.     Column Row Layer    Maximum-Head-Change  Column Row Layer    Maximum-Flux-Residual          L2-NORM 
          0                 1           2             4    7     1      -0.6410711256E-01       4    7    1        -0.3364821340E+01      0.7331658709E+01
          0                 2           2             4   13     1      -0.1468500747E-01       4   13    1        -0.8632088755E+00      0.1646956106E+01
          0                 3           2             7   13     1      -0.1958505656E-02       7   13    1        -0.1092534498E+00      0.1704767955E+00
          0                 4           2             7   13     1       0.1333119267E-03       7   13    1         0.7640651667E-02      0.1534800990E-01
          0                 5           1             4    7     1      -0.5449514692E-04       4    7    1        -0.3007046417E-02      0.7357676027E-02

    ------------------------------------------------
       NWT REQUIRED            5 OUTER ITERATIONS 
       AND A TOTAL OF          9 INNER ITERATIONS.
    ------------------------------------------------

 NO OUTPUT CONTROL FOR STRESS PERIOD   20   TIME STEP   21
 
 SOLVING FOR HEAD 
                                                   Max.-Head-Change                         Max.-Flux-Residual
  Residual-Control   Outer-Iter.   Inner-Iter.     Column Row Layer    Maximum-Head-Change  Column Row Layer    Maximum-Flux-Residual          L2-NORM 
          0                 1           2             4    7     1      -0.6345148530E-01       4    7    1        -0.3330731640E+01      0.7253859445E+01
          0                 2           2             4   13     1      -0.1469923271E-01       4   13    1        -0.8640418816E+00      0.1645351603E+01
          0                 3           2             7   13     1      -0.1952489668E-02       7   13    1        -0.1089184394E+00      0.1700499905E+00
          0                 4           2             7   13     1       0.1328961968E-03       7   13    1         0.7616897819E-02      0.1536296008E-01
          0                 5           1             4    7     1      -0.5450460551E-04       4    7    1        -0.3007566707E-02      0.7358746972E-02

    ------------------------------------------------
       NWT REQUIRED            5 OUTER ITERATIONS 
       AND A TOTAL OF          9 INNER ITERATIONS.
    ------------------------------------------------

 NO OUTPUT CONTROL FOR STRESS PERIOD   20   TIME STEP   22
 
 SOLVING FOR HEAD 
                                                   Max.-Head-Change                         Max.-Flux-Residual
  Residual-Control   Outer-Iter.   Inner-Iter.     Column Row Layer    Maximum-Head-Change  Column Row Layer    Maximum-Flux-Residual          L2-NORM 
          0                 1           2             4    7     1      -0.6279676862E-01       4    7    1        -0.3296649064E+01      0.7178521912E+01
          0                 2           2             4   13     1      -0.1471230779E-01       4   13    1        -0.8648072375E+00      0.1643772357E+01
          0                 3           2             7   13     1      -0.1946637975E-02       7   13    1        -0.1085925834E+00      0.1696310402E+00
          0                 4           2             7   13     1       0.1324971882E-03       7   13    1         0.7594057791E-02      0.1537890680E-01
          0                 5           1             4    7     1      -0.5451332449E-04       4    7    1        -0.3008045686E-02      0.7359740134E-02

    ------------------------------------------------
       NWT REQUIRED            5 OUTER ITERATIONS 
       AND A TOTAL OF          9 INNER ITERATIONS.
    ------------------------------------------------

 NO OUTPUT CONTROL FOR STRESS PERIOD   20   TIME STEP   23
 
 SOLVING FOR HEAD 
                                                   Max.-Head-Change                         Max.-Flux-Residual
  Residual-Control   Outer-Iter.   Inner-Iter.     Column Row Layer    Maximum-Head-Change  Column Row Layer    Maximum-Flux-Residual          L2-NORM 
          0                 1           2             4    7     1      -0.6214417271E-01       4    7    1        -0.3262641906E+01      0.7105511566E+01
          0                 2           2             4   13     1      -0.1472432720E-01       4   13    1        -0.8655105050E+00      0.1642225270E+01
          0                 3           2             7   13     1      -0.1940933020E-02       7   13    1        -0.1082749031E+00      0.1692234185E+00
          0                 4           2             7   13     1       0.1321093824E-03       7   13    1         0.7571853487E-02      0.1539128423E-01
          0                 5           1             4    7     1      -0.5452318567E-04       4    7    1        -0.3008587232E-02      0.7360922753E-02

    ------------------------------------------------
       NWT REQUIRED            5 OUTER ITERATIONS 
       AND A TOTAL OF          9 INNER ITERATIONS.
    ------------------------------------------------

 NO OUTPUT CONTROL FOR STRESS PERIOD   20   TIME STEP   24
 
 SOLVING FOR HEAD 
                                                   Max.-Head-Change                         Max.-Flux-Residual
  Residual-Control   Outer-Iter.   Inner-Iter.     Column Row Layer    Maximum-Head-Change  Column Row Layer    Maximum-Flux-Residual          L2-NORM 
          0                 1           2             4    7     1      -0.6149379244E-01       4    7    1        -0.3228715665E+01      0.7034725038E+01
          0                 2           2             4   13     1      -0.1473545553E-01       4   13    1        -0.8661614248E+00      0.1640709539E+01
          0                 3           2             7   13     1      -0.1935377038E-02       7   13    1        -0.1079655207E+00      0.1688265108E+00
          0                 4           2             7   13     1       0.1317309589E-03       7   13    1         0.7550186787E-02      0.1540818079E-01
          0                 5           1             4    7     1      -0.5450570252E-04       4    7    1        -0.3007619613E-02      0.7358435238E-02

    ------------------------------------------------
       NWT REQUIRED            5 OUTER ITERATIONS 
       AND A TOTAL OF          9 INNER ITERATIONS.
    ------------------------------------------------

 NO OUTPUT CONTROL FOR STRESS PERIOD   20   TIME STEP   25
 
 SOLVING FOR HEAD 
                                                   Max.-Head-Change                         Max.-Flux-Residual
  Residual-Control   Outer-Iter.   Inner-Iter.     Column Row Layer    Maximum-Head-Change  Column Row Layer    Maximum-Flux-Residual          L2-NORM 
          0                 1           2             4    7     1      -0.6084675379E-01       4    7    1        -0.3194933875E+01      0.6966046153E+01
          0                 2           2             4   13     1      -0.1474573985E-01       4   13    1        -0.8667627705E+00      0.1639225713E+01
          0                 3           2             7   13     1      -0.1929959155E-02       7   13    1        -0.1076638274E+00      0.1684388534E+00
          0                 4           2             7   13     1       0.1313615487E-03       7   13    1         0.7529034888E-02      0.1542027507E-01
          0                 5           1             4    7     1      -0.5452423723E-04       4    7    1        -0.3008638896E-02      0.7360830412E-02

    ------------------------------------------------
       NWT REQUIRED            5 OUTER ITERATIONS 
       AND A TOTAL OF          9 INNER ITERATIONS.
    ------------------------------------------------

 NO OUTPUT CONTROL FOR STRESS PERIOD   20   TIME STEP   26
 
 SOLVING FOR HEAD 
                                                   Max.-Head-Change                         Max.-Flux-Residual
  Residual-Control   Outer-Iter.   Inner-Iter.     Column Row Layer    Maximum-Head-Change  Column Row Layer    Maximum-Flux-Residual          L2-NORM 
          0                 1           2             4    7     1      -0.6020329718E-01       4    7    1        -0.3161310592E+01      0.6899383105E+01
          0                 2           2             4   13     1      -0.1475527307E-01       4   13    1        -0.8673200091E+00      0.1637767715E+01
          0                 3           2             7   13     1      -0.1924680575E-02       7   13    1        -0.1073698988E+00      0.1680606995E+00
          0                 4           2             7   13     1       0.1309979499E-03       7   13    1         0.7508217543E-02      0.1543435444E-01
          0                 5           1             4    7     1      -0.5453347950E-04       4    7    1        -0.3009145133E-02      0.7362002070E-02

    ------------------------------------------------
       NWT REQUIRED            5 OUTER ITERATIONS 
       AND A TOTAL OF          9 INNER ITERATIONS.
    ------------------------------------------------

 NO OUTPUT CONTROL FOR STRESS PERIOD   20   TIME STEP   27
 
 SOLVING FOR HEAD 
                                                   Max.-Head-Change                         Max.-Flux-Residual
  Residual-Control   Outer-Iter.   Inner-Iter.     Column Row Layer    Maximum-Head-Change  Column Row Layer    Maximum-Flux-Residual          L2-NORM 
          0                 1           2             4    7     1      -0.5956389010E-01       4    7    1        -0.3127873063E+01      0.6834624196E+01
          0                 2           2             4   13     1      -0.1476408486E-01       4   13    1        -0.8678348815E+00      0.1636340811E+01
          0                 3           2             7   13     1      -0.1919527477E-02       7   13    1        -0.1070829557E+00      0.1676918619E+00
          0                 4           2             7   13     1       0.1306529745E-03       7   13    1         0.7488465103E-02      0.1544706157E-01
          0                 5           1             4    7     1      -0.5451720766E-04       4    7    1        -0.3008243246E-02      0.7359738264E-02

    ------------------------------------------------
       NWT REQUIRED            5 OUTER ITERATIONS 
       AND A TOTAL OF          9 INNER ITERATIONS.
    ------------------------------------------------

 NO OUTPUT CONTROL FOR STRESS PERIOD   20   TIME STEP   28
 
 SOLVING FOR HEAD 
                                                   Max.-Head-Change                         Max.-Flux-Residual
  Residual-Control   Outer-Iter.   Inner-Iter.     Column Row Layer    Maximum-Head-Change  Column Row Layer    Maximum-Flux-Residual          L2-NORM 
          0                 1           2             4    7     1      -0.5892924013E-01       4    7    1        -0.3094660296E+01      0.6771706368E+01
          0                 2           2             4   13     1      -0.1477226973E-01       4   13    1        -0.8683129546E+00      0.1634945202E+01
          0                 3           2             7   13     1      -0.1914501085E-02       7   13    1        -0.1068030709E+00      0.1673311259E+00
          0                 4           2             7   13     1       0.1303090957E-03       7   13    1         0.7468777624E-02      0.1546171605E-01
          0                 5           1             4    7     1      -0.5452616379E-04       4    7    1        -0.3008733080E-02      0.7360918532E-02

    ------------------------------------------------
       NWT REQUIRED            5 OUTER ITERATIONS 
       AND A TOTAL OF          9 INNER ITERATIONS.
    ------------------------------------------------

 NO OUTPUT CONTROL FOR STRESS PERIOD   20   TIME STEP   29
 
 SOLVING FOR HEAD 
                                                   Max.-Head-Change                         Max.-Flux-Residual
  Residual-Control   Outer-Iter.   Inner-Iter.     Column Row Layer    Maximum-Head-Change  Column Row Layer    Maximum-Flux-Residual          L2-NORM 
          0                 1           2             4    7     1      -0.8385376816E-01       4    7    1        -0.4395919168E+01      0.9765651422E+01
          0                 2           2             4   13     1      -0.1137462537E-01       4   13    1        -0.6686335472E+00      0.1480622439E+01
          0                 3           2             7   13     1      -0.1974237978E-02       7   13    1        -0.1100953296E+00      0.1671751612E+00
          0                 4           2             7   13     1       0.1343768909E-03       7   13    1         0.7700280518E-02      0.1460931805E-01
          0                 5           1             4    7     1      -0.5484275528E-04       4    7    1        -0.3026197275E-02      0.7404060896E-02

    ------------------------------------------------
       NWT REQUIRED            5 OUTER ITERATIONS 
       AND A TOTAL OF          9 INNER ITERATIONS.
    ------------------------------------------------

 NO OUTPUT CONTROL FOR STRESS PERIOD   20   TIME STEP   30



 STREAM LISTING     PERIOD     20   STEP       30

 LAYER ROW COL. STREAM  RCH.  FLOW INTO     FLOW TO   FLOW OUT OF   OVRLND.     DIRECT     STREAM       STREAM     STREAM     STREAM   STREAMBED  STREAMBED
                SEG.NO.  NO.  STRM. RCH.    AQUIFER    STRM. RCH.    RUNOFF     PRECIP       ET          HEAD       DEPTH      WIDTH   CONDCTNC.   GRADIENT

   1    1    1     1     1    3.2276E+01  2.7609E-01   3.2000E+01  0.000E+00  0.000E+00  0.000E+00  1.09432E+03  1.269E+00  1.437E+01  6.467E-02  1.423E+00
   1    2    2     1     2    3.2000E+01  4.2738E-01   3.1573E+01  0.000E+00  0.000E+00  0.000E+00  1.08932E+03  1.266E+00  1.431E+01  1.002E-01  1.422E+00
   1    3    3     1     3    3.1573E+01  3.6428E-01   3.1209E+01  0.000E+00  0.000E+00  0.000E+00  1.08368E+03  1.263E+00  1.424E+01  8.546E-02  1.421E+00
   1    3    4     1     4    3.1209E+01  3.3528E-01   3.0873E+01  0.000E+00  0.000E+00  0.000E+00  1.07867E+03  1.259E+00  1.418E+01  7.871E-02  1.420E+00
   1    4    5     2     1    2.8873E+01  3.3633E-01   2.8537E+01  0.000E+00  0.000E+00  0.000E+00  1.07325E+03  1.312E+00  1.200E+01  7.800E-02  1.437E+00
   1    5    6     2     2    2.8537E+01  2.5823E-01   2.8279E+01  0.000E+00  0.000E+00  0.000E+00  1.06781E+03  1.304E+00  1.200E+01  6.000E-02  1.435E+00
   1    6    6     2     3    2.8279E+01  2.5780E-01   2.8021E+01  0.000E+00  0.000E+00  0.000E+00  1.06309E+03  1.297E+00  1.200E+01  6.000E-02  1.432E+00
   1    7    6     2     4    2.8021E+01  2.5737E-01   2.7764E+01  0.000E+00  0.000E+00  0.000E+00  1.05836E+03  1.290E+00  1.200E+01  6.000E-02  1.430E+00
   1    8    6     2     5    2.7764E+01  2.5694E-01   2.7507E+01  0.000E+00  0.000E+00  0.000E+00  1.05364E+03  1.282E+00  1.200E+01  6.000E-02  1.427E+00
   1    3    5     3     1    2.0000E+00  2.8252E-01   1.7175E+00  0.000E+00  0.000E+00  0.000E+00  1.07555E+03  1.909E+00  9.636E+00  7.227E-02  1.955E+00
   1    3    6     3     2    1.7175E+00  2.4905E-01   1.4684E+00  0.000E+00  0.000E+00  0.000E+00  1.07264E+03  1.727E+00  8.909E+00  6.682E-02  1.864E+00
   1    3    7     3     3    1.4684E+00  1.9718E-01   1.2712E+00  0.000E+00  0.000E+00  0.000E+00  1.06987E+03  1.555E+00  8.218E+00  5.547E-02  1.777E+00
   1    4    8     3     4    1.2712E+00  2.2567E-01   1.0456E+00  0.000E+00  0.000E+00  0.000E+00  1.06682E+03  1.364E+00  7.455E+00  6.709E-02  1.682E+00
   1    5    8     3     5    1.0456E+00  1.5790E-01   8.8768E-01  0.000E+00  0.000E+00  0.000E+00  1.06362E+03  1.164E+00  6.655E+00  4.991E-02  1.582E+00
   1    6    8     3     6    8.8768E-01  5.5980E-02   8.3170E-01  0.000E+00  0.000E+00  0.000E+00  1.06158E+03  1.036E+00  6.145E+00  1.844E-02  1.518E+00
   1    5   10     4     1    1.0000E+01  9.0919E-02   9.9091E+00  0.000E+00  0.000E+00  0.000E+00  1.07836E+03  6.368E-01  1.000E+01  2.500E-02  1.212E+00
   1    5    9     4     2    9.9091E+00  1.8158E-01   9.7275E+00  0.000E+00  0.000E+00  0.000E+00  1.07154E+03  6.315E-01  1.000E+01  5.000E-02  1.211E+00
   1    6    8     4     3    9.7275E+00  1.2689E-01   9.6006E+00  0.000E+00  0.000E+00  0.000E+00  1.06381E+03  6.256E-01  1.000E+01  3.500E-02  1.209E+00
   1    6    8     5     1    1.0432E+01  2.2686E-01   1.0205E+01  0.000E+00  0.000E+00  0.000E+00  1.05868E+03  6.790E-01  1.542E+01  6.166E-02  1.226E+00
   1    7    7     5     2    1.0205E+01  2.7894E-01   9.9265E+00  0.000E+00  0.000E+00  0.000E+00  1.05417E+03  6.732E-01  1.519E+01  7.594E-02  1.224E+00
   1    8    7     5     3    9.9265E+00  1.9221E-01   9.7343E+00  0.000E+00  0.000E+00  0.000E+00  1.04992E+03  6.676E-01  1.497E+01  5.241E-02  1.223E+00
   1    8    6     5     4    9.7343E+00  1.3577E-01   9.5985E+00  0.000E+00  0.000E+00  0.000E+00  1.04691E+03  6.637E-01  1.482E+01  3.706E-02  1.221E+00
   1    9    6     6     1    9.5985E+00  2.2097E-01   9.3776E+00  0.000E+00  0.000E+00  0.000E+00  1.04341E+03  6.828E-01  1.200E+01  6.000E-02  1.228E+00
   1   10    7     6     2    9.3776E+00  2.2039E-01   9.1572E+00  0.000E+00  0.000E+00  0.000E+00  1.03885E+03  6.732E-01  1.200E+01  6.000E-02  1.224E+00
   1   11    7     6     3    9.1572E+00  2.1981E-01   8.9374E+00  0.000E+00  0.000E+00  0.000E+00  1.03430E+03  6.636E-01  1.200E+01  6.000E-02  1.221E+00
   1   12    7     6     4    8.9374E+00  2.1923E-01   8.7181E+00  0.000E+00  0.000E+00  0.000E+00  1.02974E+03  6.539E-01  1.200E+01  6.000E-02  1.218E+00
   1   13    7     6     5    8.7181E+00 -1.3008E-01   8.8482E+00  0.000E+00  0.000E+00  0.000E+00  1.02656E+03  6.519E-01  1.200E+01  2.400E-01 -1.807E-01
   1   14    9     7     1    1.5000E+02  1.3360E+00   1.4866E+02  0.000E+00  0.000E+00  0.000E+00  1.03987E+03  2.288E+00  5.529E+01  5.593E-01  7.962E-01
   1   13    8     7     2    1.4866E+02  1.8201E+00   1.4684E+02  0.000E+00  0.000E+00  0.000E+00  1.03478E+03  2.279E+00  5.526E+01  6.148E-01  9.869E-01
   1   13    7     7     3    1.4684E+02  1.4447E+00   1.4540E+02  0.000E+00  0.000E+00  0.000E+00  1.02969E+03  2.271E+00  5.522E+01  5.585E-01  8.623E-01
   1   13    6     8     1    1.5425E+02  8.0174E-01   1.5345E+02  0.000E+00  0.000E+00  0.000E+00  1.02472E+03  2.844E+00  4.123E+01  4.202E-01  6.360E-01
   1   13    5     8     2    1.5345E+02  7.9506E-02   1.5337E+02  0.000E+00  0.000E+00  0.000E+00  1.01847E+03  2.841E+00  4.119E+01  4.197E-01  6.314E-02
   1   13    4     8     3    1.5337E+02 -2.7414E+00   1.5611E+02  0.000E+00  0.000E+00  0.000E+00  1.01222E+03  2.850E+00  4.132E+01  4.211E+00 -2.170E-01
   1   13    3     8     4    1.5611E+02 -3.8045E+00   1.5991E+02  0.000E+00  0.000E+00  0.000E+00  1.00600E+03  2.872E+00  4.165E+01  4.244E+00 -2.988E-01
   1   13    2     8     5    1.5991E+02 -2.6553E+00   1.6257E+02  0.000E+00  0.000E+00  0.000E+00  9.99769E+02  2.894E+00  4.197E+01  4.276E+00 -2.070E-01
   1   13    1     8     6    1.6257E+02 -2.0465E+00   1.6461E+02  0.000E+00  0.000E+00  0.000E+00  9.94785E+02  2.910E+00  4.219E+01  2.580E+00 -2.644E-01
   1    8    6     9     1    2.7507E+01  0.0000E+00   2.7507E+01  0.000E+00  0.000E+00  0.000E+00  1.08291E+03  4.158E+00  4.000E+00  0.000E+00  2.386E+00
   1    8    5     9     2    2.7507E+01  0.0000E+00   2.7507E+01  0.000E+00  0.000E+00  0.000E+00  1.08241E+03  4.158E+00  4.000E+00  0.000E+00  2.386E+00





UNSATURATED ZONE PACKAGE VOLUMETRIC BUDGET FOR  TIME STEP    30 STRESS PERIOD   20
  ------------------------------------------------------------------------------



     CUMULATIVE VOLUMES      L**3       RATES FOR THIS TIME STEP      L**3/T
     ------------------                 ------------------------

           IN:                                      IN:
           ---                                      ---
        INFILTRATION =   862567589.0520          INFILTRATION =          64.2132

          OUT:                                     OUT:
          ----                                     ----
              UZF ET =   804433886.7614                UZF ET =          64.0978
        UZF RECHARGE =      654716.9165          UZF RECHARGE =       0.0000E+00

            IN - OUT =    57478985.3741              IN - OUT =           0.1153

          STORAGE:                                 STORAGE:
          --------                                 --------
      STORAGE CHANGE =    57479578.4553        STORAGE CHANGE =           0.1153

 PERCENT DISCREPANCY IS DIFFERENCE BETWEEN IN-OUT MINUS CHANGE IN STORAGE
 DIVIDED BY THE AVERAGE OF IN AND OUT TIMES 100

 PERCENT DISCREPANCY =          -0.00     PERCENT DISCREPANCY =           0.00






1
  VOLUMETRIC BUDGET FOR AGRICULTURAL FIELDS AT TIME STEP   30, STRESS PERIOD  20
  ------------------------------------------------------------------------------

     CUMULATIVE VOLUMES      L**3       RATES FOR THIS TIME STEP      L**3/T
     ------------------                 ------------------------

           IN:                                      IN:
           ---                                      ---
               AG WELLS  =   108668776.0000                 AG WELLS  =          32.2984
      DIVERSION SEGMENTS =   533572512.0000        DIVERSION SEGMENTS =          27.5067
           GW IRRIGATION =           0.0000             GW IRRIGATION =           0.0000
           SW IRRIGATION =           0.0000             SW IRRIGATION =           0.0000
        SYSTEM LOSSES GW =           0.0000          SYSTEM LOSSES GW =           0.0000
        SYSTEM LOSSES SW =           0.0000          SYSTEM LOSSES SW =           0.0000

                TOTAL IN =   642241280.0000                  TOTAL IN =          59.8051

          OUT:                                     OUT:
          ----                                     ----
               AG WELLS  =           0.0000                 AG WELLS  =           0.0000
      DIVERSION SEGMENTS =           0.0000        DIVERSION SEGMENTS =           0.0000
           GW IRRIGATION =   108668776.0000             GW IRRIGATION =          32.2984
           SW IRRIGATION =   533583296.0000             SW IRRIGATION =          27.5073
        SYSTEM LOSSES GW =           0.0000          SYSTEM LOSSES GW =           0.0000
        SYSTEM LOSSES SW =           0.0000          SYSTEM LOSSES SW =           0.0000

               TOTAL OUT =   642252096.0000                 TOTAL OUT =          59.8057

                IN - OUT =      -10816.0000                  IN - OUT =      -5.4932E-04

     PERCENT DISCREPANCY =          -0.00         PERCENT DISCREPANCY =          -0.00



1
  VOLUMETRIC BUDGET FOR ENTIRE MODEL AT END OF TIME STEP   30, STRESS PERIOD  20
  ------------------------------------------------------------------------------

     CUMULATIVE VOLUMES      L**3       RATES FOR THIS TIME STEP      L**3/T
     ------------------                 ------------------------

           IN:                                      IN:
           ---                                      ---
             STORAGE     =   159520528.0000               STORAGE     =          32.5904
       CONSTANT HEAD     =           0.0000         CONSTANT HEAD     =           0.0000
     HEAD DEP BOUNDS     =    14303688.0000       HEAD DEP BOUNDS     =           0.2858
      STREAM LEAKAGE     =   600919616.0000        STREAM LEAKAGE     =          11.5337
        UZF RECHARGE     =      654716.8125          UZF RECHARGE     =           0.0000
               GW ET     =           0.0000                 GW ET     =           0.0000
     SURFACE LEAKAGE     =           0.0000       SURFACE LEAKAGE     =           0.0000
           AG WELLS      =           0.0000             AG WELLS      =           0.0000

                TOTAL IN =   775398528.0000                  TOTAL IN =          44.4099

          OUT:                                     OUT:
          ----                                     ----
             STORAGE     =   105744296.0000               STORAGE     =           0.4450
       CONSTANT HEAD     =           0.0000         CONSTANT HEAD     =           0.0000
     HEAD DEP BOUNDS     =    14575001.0000       HEAD DEP BOUNDS     =           0.2880
      STREAM LEAKAGE     =   544124864.0000        STREAM LEAKAGE     =          11.3778
        UZF RECHARGE     =           0.0000          UZF RECHARGE     =           0.0000
               GW ET     =     2260364.5000                 GW ET     =           0.0000
     SURFACE LEAKAGE     =           0.0000       SURFACE LEAKAGE     =           0.0000
           AG WELLS      =   108668776.0000             AG WELLS      =          32.2984

               TOTAL OUT =   775373312.0000                 TOTAL OUT =          44.4091

                IN - OUT =       25216.0000                  IN - OUT =       7.3242E-04

     PERCENT DISCREPANCY =           0.00         PERCENT DISCREPANCY =           0.00






         TIME SUMMARY AT END OF TIME STEP   30 IN STRESS PERIOD   20
                    SECONDS     MINUTES      HOURS       DAYS        YEARS
                    -----------------------------------------------------------
   TIME STEP LENGTH  87667.      1461.1      24.352      1.0147     2.77799E-03
 STRESS PERIOD TIME 2.63000E+06  43833.      730.56      30.440     8.33397E-02
         TOTAL TIME 5.00565E+07 8.34276E+05  13905.      579.36      1.5862    
1
1
                            STRESS PERIOD NO.   21, LENGTH =   2630000.    
                            -----------------------------------------------

                              NUMBER OF TIME STEPS =    30

                               MULTIPLIER FOR DELT =     1.000

                            INITIAL TIME STEP SIZE =   87666.66    

 REUSING NON-PARAMETER GHB CELLS FROM LAST STRESS PERIOD

      2 GHB CELLS

 REUSING STREAM SEGMENT DATA FROM LAST STRESS PERIOD



            AREAL INFILTRATION RATE
 READING ON UNIT   19 WITH FORMAT: (10F4.0)            

            1           2           3           4           5           6           7           8           9          10
 ........................................................................................................................
   1   1.2000E-09   0.000       0.000       0.000       0.000       0.000       0.000       0.000       0.000       0.000    
   2   2.1000E-09  2.0000E-09  8.0000E-10  8.5000E-09   0.000       0.000       0.000       0.000       0.000       0.000    
   3   5.0000E-10  1.1000E-09  8.8000E-09  5.5000E-09   0.000       0.000       0.000       0.000       0.000       0.000    
   4   8.5000E-09  1.1000E-09  1.1000E-09  1.1000E-09  2.0000E-09   0.000       0.000       0.000       0.000       0.000    
   5   8.5000E-09  1.1000E-09  1.1000E-09  1.1000E-09  1.1000E-09   0.000       0.000       0.000       0.000       0.000    
   6   8.5000E-09  5.2000E-09  2.1000E-09  1.1000E-09  1.5000E-09   0.000       0.000       0.000       0.000       0.000    
   7   8.5000E-09  5.2000E-09  2.1000E-09  1.2000E-09  2.0000E-09   0.000       0.000       0.000       0.000       0.000    
   8   5.0000E-10  5.2000E-09  2.1000E-09  1.2000E-09  5.0000E-09   0.000       0.000       0.000       0.000       0.000    
   9   5.0000E-10  5.2000E-09  2.1000E-09  1.2000E-09  5.0000E-09   0.000       0.000       0.000       0.000       0.000    
  10   5.0000E-10  5.2000E-09  2.1000E-09  1.2000E-09  5.8000E-09   0.000       0.000       0.000       0.000       0.000    
  11   1.0000E-10  1.1000E-09  1.1000E-09  1.2000E-09  5.0000E-09   0.000       0.000       0.000       0.000       0.000    
  12   1.1000E-09  1.1000E-09  1.1000E-09  1.1000E-09  2.0000E-09   0.000       0.000       0.000       0.000       0.000    
  13   1.1000E-09  2.2000E-09  2.2000E-09  2.1000E-09  1.0000E-09   0.000       0.000       0.000       0.000       0.000    
  14   2.0000E-10  5.5000E-09  5.5000E-09  5.2000E-09  1.0000E-09   0.000       0.000       0.000       0.000       0.000    
  15    0.000      8.8000E-09  8.8000E-09   0.000       0.000       0.000       0.000       0.000       0.000       0.000    

                  ET RATE =  3.250000E-07

 USING ET EXTINCTION DEPTH FROM PREVIOUS STRESS PERIOD. CURRENT PERIOD IS:      21

 USING EXTINCTION WATER CONTENT FROM PREVIOUS STRESS PERIOD. CURRENT PERIOD IS:      21

 USING AIR ENTRY PRESSURE FROM PREVIOUS STRESS PERIOD. CURRENT PERIOD IS:      21

 USING ROOT PRESSURE HEAD FROM PREVIOUS STRESS PERIOD. CURRENT PERIOD IS:      21

 USING ROOT ACTIVITY FROM PREVIOUS STRESS PERIOD. CURRENT PERIOD IS:      21

 PROCESSING AG STRESS PERIOD DATA

 READING AG STRESS PERIOD DATA

 READING IRRIGATION SEGMENT

 READING IRRIGATION WELL

 READING SUPPLEMENTAL WELL

 END PROCESSING AG STRESS PERIOD DATA OPTIONS
 
 SOLVING FOR HEAD 
                                                   Max.-Head-Change                         Max.-Flux-Residual
  Residual-Control   Outer-Iter.   Inner-Iter.     Column Row Layer    Maximum-Head-Change  Column Row Layer    Maximum-Flux-Residual          L2-NORM 
          0                 1           2             4    7     1      -0.6119584520E-01       4    7    1        -0.3213405756E+01      0.6976173537E+01
          0                 2           2             4   13     1      -0.9527546197E-02       4   13    1        -0.5600787063E+00      0.1164266836E+01
          0                 3           2             7   13     1      -0.2007288773E-02       7   13    1        -0.1119297184E+00      0.1517187534E+00
          0                 4           2             7   13     1       0.1366258864E-03       7   13    1         0.7829766784E-02      0.1528490224E-01
          0                 5           1             4    7     1      -0.5462392498E-04       4    7    1        -0.3014125962E-02      0.7374207074E-02

    ------------------------------------------------
       NWT REQUIRED            5 OUTER ITERATIONS 
       AND A TOTAL OF          9 INNER ITERATIONS.
    ------------------------------------------------

 NO OUTPUT CONTROL FOR STRESS PERIOD   21   TIME STEP    1
 
 SOLVING FOR HEAD 
                                                   Max.-Head-Change                         Max.-Flux-Residual
  Residual-Control   Outer-Iter.   Inner-Iter.     Column Row Layer    Maximum-Head-Change  Column Row Layer    Maximum-Flux-Residual          L2-NORM 
          0                 1           2             4    7     1      -0.6052438450E-01       4    7    1        -0.3178249600E+01      0.6909095066E+01
          0                 2           2             4   13     1      -0.9533028870E-02       4   13    1        -0.5603984730E+00      0.1160549593E+01
          0                 3           2             7   13     1      -0.2002613515E-02       7   13    1        -0.1116693981E+00      0.1515902856E+00
          0                 4           2             7   13     1       0.1363066057E-03       7   13    1         0.7811496129E-02      0.1558419905E-01
          0                 5           1             4    7     1      -0.5588753342E-04       4    7    1        -0.3083841049E-02      0.7544790099E-02

    ------------------------------------------------
       NWT REQUIRED            5 OUTER ITERATIONS 
       AND A TOTAL OF          9 INNER ITERATIONS.
    ------------------------------------------------

 NO OUTPUT CONTROL FOR STRESS PERIOD   21   TIME STEP    2
 
 SOLVING FOR HEAD 
                                                   Max.-Head-Change                         Max.-Flux-Residual
  Residual-Control   Outer-Iter.   Inner-Iter.     Column Row Layer    Maximum-Head-Change  Column Row Layer    Maximum-Flux-Residual          L2-NORM 
          0                 1           2             4    7     1      -0.5985788772E-01       4    7    1        -0.3143332999E+01      0.6843735619E+01
          0                 2           2             4   13     1      -0.9538118040E-02       4   13    1        -0.5606951578E+00      0.1156921283E+01
          0                 3           2             7   13     1      -0.1998049669E-02       7   13    1        -0.1114021838E+00      0.1514296097E+00
          0                 4           2             7   13     1       0.1359964614E-03       7   13    1         0.7792227171E-02      0.1589276045E-01
          0                 5           1             4    7     1      -0.5715609919E-04       4    7    1        -0.3153829205E-02      0.7716055601E-02

    ------------------------------------------------
       NWT REQUIRED            5 OUTER ITERATIONS 
       AND A TOTAL OF          9 INNER ITERATIONS.
    ------------------------------------------------

 NO OUTPUT CONTROL FOR STRESS PERIOD   21   TIME STEP    3
 
 SOLVING FOR HEAD 
                                                   Max.-Head-Change                         Max.-Flux-Residual
  Residual-Control   Outer-Iter.   Inner-Iter.     Column Row Layer    Maximum-Head-Change  Column Row Layer    Maximum-Flux-Residual          L2-NORM 
          0                 1           2             4    7     1      -0.4857109288E-01       4    7    1        -0.2553893401E+01      0.5552449920E+01
          0                 2           2             4   13     1      -0.9542860383E-02       4   13    1        -0.5609715393E+00      0.1042228440E+01
          0                 3           2             4    7     1      -0.2822366839E-02       4    7    1        -0.1475499217E+00      0.3723386212E+00
          0                 4           2             4    7     1      -0.1178193611E-02       5    8    1        -0.6240010917E-01      0.1521963502E+00
          0                 5           2             4    7     1      -0.6124003355E-03       4    7    1        -0.3197641878E-01      0.7819103090E-01
          0                 6           2             4    7     1      -0.3038606835E-03       5    6    1        -0.1587311689E-01      0.3887311435E-01
          0                 7           2             4    7     1      -0.1521597239E-03       4    7    1        -0.7944502277E-02      0.1945819125E-01
          0                 8           1             4    7     1      -0.7606605726E-04       4    7    1        -0.3971517494E-02      0.9728099747E-02

    ------------------------------------------------
       NWT REQUIRED            8 OUTER ITERATIONS 
       AND A TOTAL OF         15 INNER ITERATIONS.
    ------------------------------------------------

 NO OUTPUT CONTROL FOR STRESS PERIOD   21   TIME STEP    4
 
 SOLVING FOR HEAD 
                                                   Max.-Head-Change                         Max.-Flux-Residual
  Residual-Control   Outer-Iter.   Inner-Iter.     Column Row Layer    Maximum-Head-Change  Column Row Layer    Maximum-Flux-Residual          L2-NORM 
          0                 1           2             4    7     1      -0.4753728019E-01       4    7    1        -0.2499764297E+01      0.5453832638E+01
          0                 2           2             4   13     1      -0.9547267392E-02       4   13    1        -0.5612283032E+00      0.1053631414E+01
          0                 3           2             4    7     1      -0.2892563548E-02       4    7    1        -0.1512135110E+00      0.3807262373E+00
          0                 4           2             4    7     1      -0.1221488444E-02       5    8    1        -0.6465727861E-01      0.1577195167E+00
          0                 5           2             4    7     1      -0.6332144042E-03       4    7    1        -0.3306309731E-01      0.8085325794E-01
          0                 6           2             4    7     1      -0.3143647523E-03       5    6    1        -0.1642146593E-01      0.4021635961E-01
          0                 7           2             4    7     1      -0.1574020543E-03       4    7    1        -0.8218200611E-02      0.2012860204E-01
          0                 8           1             4    7     1      -0.7868362728E-04       4    7    1        -0.4108178980E-02      0.1006284228E-01

    ------------------------------------------------
       NWT REQUIRED            8 OUTER ITERATIONS 
       AND A TOTAL OF         15 INNER ITERATIONS.
    ------------------------------------------------

 NO OUTPUT CONTROL FOR STRESS PERIOD   21   TIME STEP    5
 
 SOLVING FOR HEAD 
                                                   Max.-Head-Change                         Max.-Flux-Residual
  Residual-Control   Outer-Iter.   Inner-Iter.     Column Row Layer    Maximum-Head-Change  Column Row Layer    Maximum-Flux-Residual          L2-NORM 
          0                 1           2             4    7     1      -0.4651071173E-01       4    7    1        -0.2445998478E+01      0.5357555348E+01
          0                 2           2             4   13     1      -0.9551365796E-02       4   13    1        -0.5614670026E+00      0.1066162020E+01
          0                 3           2             4    7     1      -0.2962643405E-02       4    7    1        -0.1548708323E+00      0.3891383705E+00
          0                 4           2             4    7     1      -0.1264685498E-02       5    8    1        -0.6690860657E-01      0.1632297148E+00
          0                 5           2             4    7     1      -0.6540109177E-03       4    7    1        -0.3414885475E-01      0.8351333661E-01
          0                 6           2             4    7     1      -0.3248340777E-03       5    6    1        -0.1696799317E-01      0.4155515428E-01
          0                 7           2             4    7     1      -0.1626387433E-03       4    7    1        -0.8491603659E-02      0.2079830317E-01
          0                 8           1             4    7     1      -0.8130176867E-04       4    7    1        -0.4244869973E-02      0.1039765720E-01

    ------------------------------------------------
       NWT REQUIRED            8 OUTER ITERATIONS 
       AND A TOTAL OF         15 INNER ITERATIONS.
    ------------------------------------------------

 NO OUTPUT CONTROL FOR STRESS PERIOD   21   TIME STEP    6
 
 SOLVING FOR HEAD 
                                                   Max.-Head-Change                         Max.-Flux-Residual
  Residual-Control   Outer-Iter.   Inner-Iter.     Column Row Layer    Maximum-Head-Change  Column Row Layer    Maximum-Flux-Residual          L2-NORM 
          0                 1           2             4    7     1      -0.4549128126E-01       4    7    1        -0.2392592222E+01      0.5263527013E+01
          0                 2           2             4   13     1      -0.9555229081E-02       4   13    1        -0.5616919696E+00      0.1079770846E+01
          0                 3           2             4    7     1      -0.3032648724E-02       4    7    1        -0.1585241134E+00      0.3975781663E+00
          0                 4           2             4    7     1      -0.1307826206E-02       5    8    1        -0.6915632758E-01      0.1687323422E+00
          0                 5           2             4    7     1      -0.6747492015E-03       4    7    1        -0.3523156761E-01      0.8616605729E-01
          0                 6           2             4    7     1      -0.3353092582E-03       5    6    1        -0.1751481880E-01      0.4289467257E-01
          0                 7           2             4    7     1      -0.1678565969E-03       4    7    1        -0.8764022578E-02      0.2146556987E-01
          0                 8           1             4    7     1      -0.8390353654E-04       4    7    1        -0.4380705720E-02      0.1073037762E-01

    ------------------------------------------------
       NWT REQUIRED            8 OUTER ITERATIONS 
       AND A TOTAL OF         15 INNER ITERATIONS.
    ------------------------------------------------

 NO OUTPUT CONTROL FOR STRESS PERIOD   21   TIME STEP    7
 
 SOLVING FOR HEAD 
                                                   Max.-Head-Change                         Max.-Flux-Residual
  Residual-Control   Outer-Iter.   Inner-Iter.     Column Row Layer    Maximum-Head-Change  Column Row Layer    Maximum-Flux-Residual          L2-NORM 
          0                 1           2             4    7     1      -0.4447906498E-01       4    7    1        -0.2339550186E+01      0.5171708672E+01
          0                 2           2             4   13     1      -0.9558825145E-02       4   13    1        -0.5619013039E+00      0.1094394797E+01
          0                 3           2             4    7     1      -0.3102631866E-02       4    7    1        -0.1621760953E+00      0.4060489216E+00
          0                 4           2             4    7     1      -0.1350887063E-02       5    8    1        -0.7139925024E-01      0.1742243746E+00
          0                 5           2             4    7     1      -0.6954681350E-03       4    7    1        -0.3631326600E-01      0.8881637999E-01
          0                 6           2             4    7     1      -0.3457407416E-03       5    6    1        -0.1805935645E-01      0.4422859660E-01
          0                 7           2             4    7     1      -0.1730697039E-03       4    7    1        -0.9036192957E-02      0.2213224073E-01
          0                 8           1             4    7     1      -0.8651491981E-04       4    7    1        -0.4517043145E-02      0.1106432556E-01

    ------------------------------------------------
       NWT REQUIRED            8 OUTER ITERATIONS 
       AND A TOTAL OF         15 INNER ITERATIONS.
    ------------------------------------------------

 NO OUTPUT CONTROL FOR STRESS PERIOD   21   TIME STEP    8
 
 SOLVING FOR HEAD 
                                                   Max.-Head-Change                         Max.-Flux-Residual
  Residual-Control   Outer-Iter.   Inner-Iter.     Column Row Layer    Maximum-Head-Change  Column Row Layer    Maximum-Flux-Residual          L2-NORM 
          0                 1           2             4    7     1      -0.4347434461E-01       4    7    1        -0.2286888921E+01      0.5082054552E+01
          0                 2           2             4   13     1      -0.9562174843E-02       4   13    1        -0.5620962554E+00      0.1109977341E+01
          0                 3           2             4    7     1      -0.3172551348E-02       4    7    1        -0.1658246308E+00      0.4145429381E+00
          0                 4           2             4    7     1      -0.1393872216E-02       5    8    1        -0.7363768445E-01      0.1797064639E+00
          0                 5           2             4    7     1      -0.7161947016E-03       4    7    1        -0.3739535897E-01      0.9146775107E-01
          0                 6           2             4    7     1      -0.3561440948E-03       5    6    1        -0.1860241928E-01      0.4555891229E-01
          0                 7           2             4    7     1      -0.1782765060E-03       4    7    1        -0.9308033462E-02      0.2279810470E-01
          0                 8           1             4    7     1      -0.8912694098E-04       4    7    1        -0.4653413562E-02      0.1139835492E-01

    ------------------------------------------------
       NWT REQUIRED            8 OUTER ITERATIONS 
       AND A TOTAL OF         15 INNER ITERATIONS.
    ------------------------------------------------

 NO OUTPUT CONTROL FOR STRESS PERIOD   21   TIME STEP    9
 
 SOLVING FOR HEAD 
                                                   Max.-Head-Change                         Max.-Flux-Residual
  Residual-Control   Outer-Iter.   Inner-Iter.     Column Row Layer    Maximum-Head-Change  Column Row Layer    Maximum-Flux-Residual          L2-NORM 
          0                 1           2             4    7     1      -0.4247724837E-01       4    7    1        -0.2234616126E+01      0.4994545301E+01
          0                 2           2             4   13     1      -0.9565352659E-02       4   13    1        -0.5622798417E+00      0.1126474075E+01
          0                 3           2             4    7     1      -0.3242430826E-02       4    7    1        -0.1694709657E+00      0.4230616588E+00
          0                 4           2             4    7     1      -0.1436797563E-02       5    8    1        -0.7587249287E-01      0.1851805730E+00
          0                 5           2             4    7     1      -0.7368359818E-03       4    7    1        -0.3847299524E-01      0.9410827771E-01
          0                 6           2             4    7     1      -0.3665834060E-03       5    6    1        -0.1914735393E-01      0.4689381664E-01
          0                 7           2             4    7     1      -0.1834705951E-03       4    7    1        -0.9579209523E-02      0.2346234172E-01
          0                 8           1             4    7     1      -0.9170371013E-04       4    7    1        -0.4787943088E-02      0.1172787496E-01

    ------------------------------------------------
       NWT REQUIRED            8 OUTER ITERATIONS 
       AND A TOTAL OF         15 INNER ITERATIONS.
    ------------------------------------------------

 NO OUTPUT CONTROL FOR STRESS PERIOD   21   TIME STEP   10
 
 SOLVING FOR HEAD 
                                                   Max.-Head-Change                         Max.-Flux-Residual
  Residual-Control   Outer-Iter.   Inner-Iter.     Column Row Layer    Maximum-Head-Change  Column Row Layer    Maximum-Flux-Residual          L2-NORM 
          0                 1           2             4    7     1      -0.4148790724E-01       4    7    1        -0.2182739891E+01      0.4909139066E+01
          0                 2           2             4   13     1      -0.9568290514E-02       4   13    1        -0.5624514970E+00      0.1143807440E+01
          0                 3           2             4    7     1      -0.3312262471E-02       4    7    1        -0.1731147035E+00      0.4316011202E+00
          0                 4           2             4    7     1      -0.1479636485E-02       5    8    1        -0.7810235473E-01      0.1906433534E+00
          0                 5           2             4    7     1      -0.7574676998E-03       4    7    1        -0.3955012859E-01      0.9674763816E-01
          0                 6           2             4    7     1      -0.3769780389E-03       5    6    1        -0.1968995069E-01      0.4822299775E-01
          0                 7           2             4    7     1      -0.1886600345E-03       4    7    1        -0.9850142149E-02      0.2412598318E-01
          0                 8           1             4    7     1      -0.9430835028E-04       4    7    1        -0.4923927456E-02      0.1206095864E-01

    ------------------------------------------------
       NWT REQUIRED            8 OUTER ITERATIONS 
       AND A TOTAL OF         15 INNER ITERATIONS.
    ------------------------------------------------

 NO OUTPUT CONTROL FOR STRESS PERIOD   21   TIME STEP   11
 
 SOLVING FOR HEAD 
                                                   Max.-Head-Change                         Max.-Flux-Residual
  Residual-Control   Outer-Iter.   Inner-Iter.     Column Row Layer    Maximum-Head-Change  Column Row Layer    Maximum-Flux-Residual          L2-NORM 
          0                 1           2             4    7     1      -0.4050640670E-01       4    7    1        -0.2131265324E+01      0.4825822526E+01
          0                 2           2             4   13     1      -0.9571066426E-02       4   13    1        -0.5626136804E+00      0.1161938183E+01
          0                 3           2             4    7     1      -0.3382048505E-02       4    7    1        -0.1767559673E+00      0.4401609640E+00
          0                 4           2             4    7     1      -0.1522434423E-02       5    8    1        -0.8032968294E-01      0.1961007076E+00
          0                 5           2             4    7     1      -0.7780487781E-03       4    7    1        -0.4062461449E-01      0.9938057307E-01
          0                 6           2             4    7     1      -0.3873503674E-03       5    6    1        -0.2023137834E-01      0.4954931765E-01
          0                 7           2             4    7     1      -0.1938425857E-03       4    7    1        -0.1012071450E-01      0.2478874277E-01
          0                 8           1             4    7     1      -0.9690455418E-04       4    7    1        -0.5059471035E-02      0.1239296245E-01

    ------------------------------------------------
       NWT REQUIRED            8 OUTER ITERATIONS 
       AND A TOTAL OF         15 INNER ITERATIONS.
    ------------------------------------------------

 NO OUTPUT CONTROL FOR STRESS PERIOD   21   TIME STEP   12
 
 SOLVING FOR HEAD 
                                                   Max.-Head-Change                         Max.-Flux-Residual
  Residual-Control   Outer-Iter.   Inner-Iter.     Column Row Layer    Maximum-Head-Change  Column Row Layer    Maximum-Flux-Residual          L2-NORM 
          0                 1           2             4    7     1      -0.3953281186E-01       4    7    1        -0.2080197104E+01      0.4744556367E+01
          0                 2           2             4   13     1      -0.9573722583E-02       4   13    1        -0.5627660293E+00      0.1180821502E+01
          0                 3           2             4    7     1      -0.3451806016E-02       4    7    1        -0.1803956623E+00      0.4487439869E+00
          0                 4           2             4    7     1      -0.1565125736E-02       5    8    1        -0.8255108694E-01      0.2015442252E+00
          0                 5           2             4    7     1      -0.7986405775E-03       4    7    1        -0.4169965680E-01      0.1020149232E+00
          0                 6           2             4    7     1      -0.3977125199E-03       5    6    1        -0.2077227032E-01      0.5087433692E-01
          0                 7           2             4    7     1      -0.1990079041E-03       4    7    1        -0.1039038644E-01      0.2544931438E-01
          0                 8           1             4    7     1      -0.9949335555E-04       4    7    1        -0.5194627801E-02      0.1272401886E-01

    ------------------------------------------------
       NWT REQUIRED            8 OUTER ITERATIONS 
       AND A TOTAL OF         15 INNER ITERATIONS.
    ------------------------------------------------

 NO OUTPUT CONTROL FOR STRESS PERIOD   21   TIME STEP   13
 
 SOLVING FOR HEAD 
                                                   Max.-Head-Change                         Max.-Flux-Residual
  Residual-Control   Outer-Iter.   Inner-Iter.     Column Row Layer    Maximum-Head-Change  Column Row Layer    Maximum-Flux-Residual          L2-NORM 
          0                 1           2             4    7     1      -0.3856730481E-01       4    7    1        -0.2029545959E+01      0.4665345918E+01
          0                 2           2             4   13     1      -0.9576141324E-02       4   13    1        -0.5629067089E+00      0.1200400249E+01
          0                 3           2             4    7     1      -0.3521528599E-02       4    7    1        -0.1840334665E+00      0.4573420753E+00
          0                 4           2             4    7     1      -0.1607756726E-02       5    8    1        -0.8476903283E-01      0.2069798698E+00
          0                 5           2             4    7     1      -0.8191654032E-03       4    7    1        -0.4277119920E-01      0.1046407454E+00
          0                 6           2             4    7     1      -0.4080722660E-03       5    6    1        -0.2131303283E-01      0.5219902356E-01
          0                 7           2             4    7     1      -0.2041826101E-03       4    7    1        -0.1066054790E-01      0.2611105142E-01
          0                 8           1             4    7     1      -0.1020720921E-03       4    7    1        -0.5329258786E-02      0.1305378720E-01
          0                 9           1             4    7     1      -0.5104709932E-04       4    7    1        -0.2665207763E-02      0.6528235598E-02

    ------------------------------------------------
       NWT REQUIRED            9 OUTER ITERATIONS 
       AND A TOTAL OF         16 INNER ITERATIONS.
    ------------------------------------------------

 NO OUTPUT CONTROL FOR STRESS PERIOD   21   TIME STEP   14
 
 SOLVING FOR HEAD 
                                                   Max.-Head-Change                         Max.-Flux-Residual
  Residual-Control   Outer-Iter.   Inner-Iter.     Column Row Layer    Maximum-Head-Change  Column Row Layer    Maximum-Flux-Residual          L2-NORM 
          0                 1           2             4    7     1      -0.3759556860E-01       4    7    1        -0.1978566012E+01      0.4586726546E+01
          0                 2           2             4   13     1      -0.9578493151E-02       4   13    1        -0.5630435659E+00      0.1221234713E+01
          0                 3           2             4    7     1      -0.3593854055E-02       4    7    1        -0.1878071183E+00      0.4662910932E+00
          0                 4           2             4    7     1      -0.1651807997E-02       5    8    1        -0.8706093045E-01      0.2125971707E+00
          0                 5           2             4    7     1      -0.8404158841E-03       4    7    1        -0.4388062555E-01      0.1073593933E+00
          0                 6           2             4    7     1      -0.4187430568E-03       5    6    1        -0.2187003151E-01      0.5356349140E-01
          0                 7           2             4    7     1      -0.2095271497E-03       4    7    1        -0.1093957585E-01      0.2679452377E-01
          0                 8           1             4    7     1      -0.1047525808E-03       4    7    1        -0.5469201982E-02      0.1339656751E-01
          0                 9           1             4    7     1      -0.5236825563E-04       4    7    1        -0.2734182746E-02      0.6697185300E-02

    ------------------------------------------------
       NWT REQUIRED            9 OUTER ITERATIONS 
       AND A TOTAL OF         16 INNER ITERATIONS.
    ------------------------------------------------

 NO OUTPUT CONTROL FOR STRESS PERIOD   21   TIME STEP   15
 
 SOLVING FOR HEAD 
                                                   Max.-Head-Change                         Max.-Flux-Residual
  Residual-Control   Outer-Iter.   Inner-Iter.     Column Row Layer    Maximum-Head-Change  Column Row Layer    Maximum-Flux-Residual          L2-NORM 
          0                 1           2             4    7     1      -0.3663081506E-01       4    7    1        -0.1927946659E+01      0.4510040586E+01
          0                 2           2             4   13     1      -0.9580697521E-02       4   13    1        -0.5631718280E+00      0.1242769962E+01
          0                 3           2             4    7     1      -0.3666363226E-02       4    7    1        -0.1915903076E+00      0.4752709726E+00
          0                 4           2             4    7     1      -0.1695886677E-02       5    8    1        -0.8935401857E-01      0.2182176665E+00
          0                 5           2             4    7     1      -0.8616910807E-03       4    7    1        -0.4499133929E-01      0.1100812296E+00
          0                 6           2             4    7     1      -0.4294662021E-03       5    6    1        -0.2242976037E-01      0.5493464840E-01
          0                 7           2             4    7     1      -0.2148664688E-03       4    7    1        -0.1121833059E-01      0.2747732710E-01
          0                 8           1             4    7     1      -0.1074244650E-03       4    7    1        -0.5608695640E-02      0.1373824670E-01
          0                 9           1             4    7     1      -0.5370854206E-04       4    7    1        -0.2804156385E-02      0.6868581153E-02

    ------------------------------------------------
       NWT REQUIRED            9 OUTER ITERATIONS 
       AND A TOTAL OF         16 INNER ITERATIONS.
    ------------------------------------------------

 NO OUTPUT CONTROL FOR STRESS PERIOD   21   TIME STEP   16
 
 SOLVING FOR HEAD 
                                                   Max.-Head-Change                         Max.-Flux-Residual
  Residual-Control   Outer-Iter.   Inner-Iter.     Column Row Layer    Maximum-Head-Change  Column Row Layer    Maximum-Flux-Residual          L2-NORM 
          0                 1           2             4    7     1      -0.3567382864E-01       4    7    1        -0.1877729751E+01      0.4435380912E+01
          0                 2           2             4   13     1      -0.9582774804E-02       4   13    1        -0.5632926756E+00      0.1264936119E+01
          0                 3           2             4    7     1      -0.3738891342E-02       4    7    1        -0.1953744402E+00      0.4842723405E+00
          0                 4           2             4    7     1      -0.1739963576E-02       5    8    1        -0.9164679775E-01      0.2238378616E+00
          0                 5           2             4    7     1      -0.8829208473E-03       4    7    1        -0.4609967813E-01      0.1127972797E+00
          0                 6           2             4    7     1      -0.4401756530E-03       5    6    1        -0.2298877131E-01      0.5630404817E-01
          0                 7           2             4    7     1      -0.2202163042E-03       4    7    1        -0.1149763380E-01      0.2816147420E-01
          0                 8           1             4    7     1      -0.1101044386E-03       4    7    1        -0.5748611321E-02      0.1408095954E-01
          0                 9           1             4    7     1      -0.5504802288E-04       4    7    1        -0.2874087798E-02      0.7039873632E-02

    ------------------------------------------------
       NWT REQUIRED            9 OUTER ITERATIONS 
       AND A TOTAL OF         16 INNER ITERATIONS.
    ------------------------------------------------

 NO OUTPUT CONTROL FOR STRESS PERIOD   21   TIME STEP   17
 
 SOLVING FOR HEAD 
                                                   Max.-Head-Change                         Max.-Flux-Residual
  Residual-Control   Outer-Iter.   Inner-Iter.     Column Row Layer    Maximum-Head-Change  Column Row Layer    Maximum-Flux-Residual          L2-NORM 
          0                 1           2             4    7     1      -0.2419192641E-01       4    7    1        -0.1277995654E+01      0.3477771925E+01
          0                 2           2             5    6     1      -0.1399658801E-01       5    8    1        -0.7532454611E+00      0.2038971573E+01
          0                 3           2             4    7     1      -0.4999687722E-02       4    7    1        -0.2611984072E+00      0.6410946160E+00
          0                 4           2             4    7     1      -0.2643356116E-02       5    8    1        -0.1388033806E+00      0.3393070183E+00
          0                 5           2             4    7     1      -0.1307507204E-02       4    7    1        -0.6826744946E-01      0.1670967856E+00
          0                 6           2             4    7     1      -0.6552300557E-03       5    6    1        -0.3421629506E-01      0.8380633199E-01
          0                 7           2             4    7     1      -0.3274582504E-03       4    7    1        -0.1709677272E-01      0.4187620172E-01
          0                 8           2             4    7     1      -0.1637493694E-03       4    7    1        -0.8549431874E-02      0.2094138078E-01
          0                 9           1             4    7     1      -0.8186809523E-04       4    7    1        -0.4274372976E-02      0.1046977847E-01

    ------------------------------------------------
       NWT REQUIRED            9 OUTER ITERATIONS 
       AND A TOTAL OF         17 INNER ITERATIONS.
    ------------------------------------------------

 NO OUTPUT CONTROL FOR STRESS PERIOD   21   TIME STEP   18
 
 SOLVING FOR HEAD 
                                                   Max.-Head-Change                         Max.-Flux-Residual
  Residual-Control   Outer-Iter.   Inner-Iter.     Column Row Layer    Maximum-Head-Change  Column Row Layer    Maximum-Flux-Residual          L2-NORM 
          0                 1           2             4    7     1      -0.2359412437E-01       4    7    1        -0.1246527110E+01      0.3454538481E+01
          0                 2           2             5    6     1      -0.1407398124E-01       5    8    1        -0.7573799743E+00      0.2048780023E+01
          0                 3           2             4    7     1      -0.5005430673E-02       4    7    1        -0.2614954919E+00      0.6419086887E+00
          0                 4           2             4    7     1      -0.2650448356E-02       5    8    1        -0.1391648303E+00      0.3402004276E+00
          0                 5           2             4    7     1      -0.1310635815E-02       4    7    1        -0.6843068708E-01      0.1674979410E+00
          0                 6           2             4    7     1      -0.6568178462E-03       5    6    1        -0.3429906077E-01      0.8400915518E-01
          0                 7           2             4    7     1      -0.3282589297E-03       4    7    1        -0.1713855461E-01      0.4197855693E-01
          0                 8           2             4    7     1      -0.1641535978E-03       4    7    1        -0.8570525954E-02      0.2099304802E-01
          0                 9           1             4    7     1      -0.8207438619E-04       4    7    1        -0.4285138096E-02      0.1049614710E-01

    ------------------------------------------------
       NWT REQUIRED            9 OUTER ITERATIONS 
       AND A TOTAL OF         17 INNER ITERATIONS.
    ------------------------------------------------

 NO OUTPUT CONTROL FOR STRESS PERIOD   21   TIME STEP   19
 
 SOLVING FOR HEAD 
                                                   Max.-Head-Change                         Max.-Flux-Residual
  Residual-Control   Outer-Iter.   Inner-Iter.     Column Row Layer    Maximum-Head-Change  Column Row Layer    Maximum-Flux-Residual          L2-NORM 
          0                 1           2             4    7     1      -0.2300313752E-01       4    7    1        -0.1215412849E+01      0.3432377540E+01
          0                 2           2             5    6     1      -0.1415101972E-01       5    8    1        -0.7614940242E+00      0.2058552996E+01
          0                 3           2             4    7     1      -0.5011307060E-02       4    7    1        -0.2617995242E+00      0.6427421191E+00
          0                 4           2             4    7     1      -0.2657554640E-02       5    8    1        -0.1395268907E+00      0.3410954668E+00
          0                 5           2             4    7     1      -0.1313790415E-02       4    7    1        -0.6859528157E-01      0.1679024384E+00
          0                 6           2             4    7     1      -0.6584213007E-03       5    6    1        -0.3438264324E-01      0.8421398012E-01
          0                 7           2             4    7     1      -0.3290671746E-03       4    7    1        -0.1718073155E-01      0.4208187995E-01
          0                 8           2             4    7     1      -0.1645479354E-03       4    7    1        -0.8591103683E-02      0.2104345045E-01
          0                 9           1             4    7     1      -0.8228166647E-04       4    7    1        -0.4295954875E-02      0.1052264226E-01

    ------------------------------------------------
       NWT REQUIRED            9 OUTER ITERATIONS 
       AND A TOTAL OF         17 INNER ITERATIONS.
    ------------------------------------------------

 NO OUTPUT CONTROL FOR STRESS PERIOD   21   TIME STEP   20
 
 SOLVING FOR HEAD 
                                                   Max.-Head-Change                         Max.-Flux-Residual
  Residual-Control   Outer-Iter.   Inner-Iter.     Column Row Layer    Maximum-Head-Change  Column Row Layer    Maximum-Flux-Residual          L2-NORM 
          0                 1           2             4    7     1      -0.2241970218E-01       4    7    1        -0.1184691758E+01      0.3411288188E+01
          0                 2           2             5    6     1      -0.1422717023E-01       5    8    1        -0.7655584769E+00      0.2068225266E+01
          0                 3           2             4    7     1      -0.5017218757E-02       4    7    1        -0.2621053853E+00      0.6435818760E+00
          0                 4           2             4    7     1      -0.2664666515E-02       5    8    1        -0.1398891513E+00      0.3419910850E+00
          0                 5           2             4    7     1      -0.1316907918E-02       4    7    1        -0.6875793917E-01      0.1683022075E+00
          0                 6           2             4    7     1      -0.6600558612E-03       5    6    1        -0.3446784917E-01      0.8442278202E-01
          0                 7           2             4    7     1      -0.3298540417E-03       4    7    1        -0.1722179241E-01      0.4218246921E-01
          0                 8           2             4    7     1      -0.1649535429E-03       4    7    1        -0.8612269867E-02      0.2109529429E-01
          0                 9           1             4    7     1      -0.8246955389E-04       4    7    1        -0.4305759145E-02      0.1054665722E-01

    ------------------------------------------------
       NWT REQUIRED            9 OUTER ITERATIONS 
       AND A TOTAL OF         17 INNER ITERATIONS.
    ------------------------------------------------

 NO OUTPUT CONTROL FOR STRESS PERIOD   21   TIME STEP   21
 
 SOLVING FOR HEAD 
                                                   Max.-Head-Change                         Max.-Flux-Residual
  Residual-Control   Outer-Iter.   Inner-Iter.     Column Row Layer    Maximum-Head-Change  Column Row Layer    Maximum-Flux-Residual          L2-NORM 
          0                 1           2             4    7     1      -0.2184376985E-01       4    7    1        -0.1154361774E+01      0.3391256127E+01
          0                 2           2             5    6     1      -0.1430250290E-01       5    8    1        -0.7695765697E+00      0.2077804668E+01
          0                 3           2             4    7     1      -0.5023152951E-02       4    7    1        -0.2624124109E+00      0.6444262747E+00
          0                 4           2             4    7     1      -0.2671753295E-02       5    8    1        -0.1402500229E+00      0.3428833733E+00
          0                 5           2             4    7     1      -0.1320037057E-02       4    7    1        -0.6892120441E-01      0.1687034768E+00
          0                 6           2             4    7     1      -0.6616527231E-03       5    6    1        -0.3455108637E-01      0.8462676183E-01
          0                 7           2             4    7     1      -0.3306720756E-03       4    7    1        -0.1726448057E-01      0.4228704476E-01
          0                 8           2             4    7     1      -0.1653469003E-03       4    7    1        -0.8632796475E-02      0.2114557145E-01
          0                 9           1             4    7     1      -0.8267693133E-04       4    7    1        -0.4316581033E-02      0.1057316489E-01

    ------------------------------------------------
       NWT REQUIRED            9 OUTER ITERATIONS 
       AND A TOTAL OF         17 INNER ITERATIONS.
    ------------------------------------------------

 NO OUTPUT CONTROL FOR STRESS PERIOD   21   TIME STEP   22
 
 SOLVING FOR HEAD 
                                                   Max.-Head-Change                         Max.-Flux-Residual
  Residual-Control   Outer-Iter.   Inner-Iter.     Column Row Layer    Maximum-Head-Change  Column Row Layer    Maximum-Flux-Residual          L2-NORM 
          0                 1           2             4    7     1      -0.2127542352E-01       4    7    1        -0.1124428203E+01      0.3372240493E+01
          0                 2           2             5    6     1      -0.1437700112E-01       5    8    1        -0.7735493102E+00      0.2087289904E+01
          0                 3           2             4    7     1      -0.5029149285E-02       4    7    1        -0.2627226811E+00      0.6452796224E+00
          0                 4           2             4    7     1      -0.2678815583E-02       5    8    1        -0.1406095630E+00      0.3437724607E+00
          0                 5           2             4    7     1      -0.1323159507E-02       4    7    1        -0.6908412055E-01      0.1691038985E+00
          0                 6           2             4    7     1      -0.6632685169E-03       5    6    1        -0.3463531165E-01      0.8483316242E-01
          0                 7           2             4    7     1      -0.3314699492E-03       4    7    1        -0.1730611621E-01      0.4238904221E-01
          0                 8           2             4    7     1      -0.1657422725E-03       4    7    1        -0.8653428335E-02      0.2119610652E-01
          0                 9           1             4    7     1      -0.8286584133E-04       4    7    1        -0.4326438743E-02      0.1059731098E-01

    ------------------------------------------------
       NWT REQUIRED            9 OUTER ITERATIONS 
       AND A TOTAL OF         17 INNER ITERATIONS.
    ------------------------------------------------

 NO OUTPUT CONTROL FOR STRESS PERIOD   21   TIME STEP   23
 
 SOLVING FOR HEAD 
                                                   Max.-Head-Change                         Max.-Flux-Residual
  Residual-Control   Outer-Iter.   Inner-Iter.     Column Row Layer    Maximum-Head-Change  Column Row Layer    Maximum-Flux-Residual          L2-NORM 
          0                 1           2             4    7     1      -0.2071446280E-01       4    7    1        -0.1094880398E+01      0.3354196565E+01
          0                 2           2             5    6     1      -0.1445072386E-01       5    8    1        -0.7774791984E+00      0.2096687139E+01
          0                 3           2             4    7     1      -0.5035189773E-02       4    7    1        -0.2630352544E+00      0.6461409075E+00
          0                 4           2             4    7     1      -0.2685850611E-02       5    8    1        -0.1409676294E+00      0.3446580117E+00
          0                 5           2             4    7     1      -0.1326275543E-02       4    7    1        -0.6924670199E-01      0.1695035087E+00
          0                 6           2             4    7     1      -0.6648849488E-03       5    6    1        -0.3471956997E-01      0.8503964422E-01
          0                 7           2             4    7     1      -0.3322403580E-03       4    7    1        -0.1734631799E-01      0.4248752750E-01
          0                 8           2             4    7     1      -0.1661586575E-03       4    7    1        -0.8675157280E-02      0.2124932874E-01
          0                 9           1             4    7     1      -0.8308004781E-04       4    7    1        -0.4337617200E-02      0.1062469188E-01

    ------------------------------------------------
       NWT REQUIRED            9 OUTER ITERATIONS 
       AND A TOTAL OF         17 INNER ITERATIONS.
    ------------------------------------------------

 NO OUTPUT CONTROL FOR STRESS PERIOD   21   TIME STEP   24
 
 SOLVING FOR HEAD 
                                                   Max.-Head-Change                         Max.-Flux-Residual
  Residual-Control   Outer-Iter.   Inner-Iter.     Column Row Layer    Maximum-Head-Change  Column Row Layer    Maximum-Flux-Residual          L2-NORM 
          0                 1           2             4    7     1      -0.2016098331E-01       4    7    1        -0.1065723862E+01      0.3337106832E+01
          0                 2           2             5    6     1      -0.1452371020E-01       5    8    1        -0.7813685246E+00      0.2105998281E+01
          0                 3           2             4    7     1      -0.5041259385E-02       4    7    1        -0.2633493522E+00      0.6470047418E+00
          0                 4           2             4    7     1      -0.2692882712E-02       5    8    1        -0.1413255325E+00      0.3455431167E+00
          0                 5           2             4    7     1      -0.1329400997E-02       4    7    1        -0.6940977543E-01      0.1699043267E+00
          0                 6           2             4    7     1      -0.6664547697E-03       5    6    1        -0.3480139487E-01      0.8524016519E-01
          0                 7           2             4    7     1      -0.3330702250E-03       4    7    1        -0.1738962415E-01      0.4259361702E-01
          0                 8           2             4    7     1      -0.1665325625E-03       4    7    1        -0.8694668405E-02      0.2129711855E-01
          0                 9           1             4    7     1      -0.8326197083E-04       4    7    1        -0.4347110154E-02      0.1064794440E-01

    ------------------------------------------------
       NWT REQUIRED            9 OUTER ITERATIONS 
       AND A TOTAL OF         17 INNER ITERATIONS.
    ------------------------------------------------

 NO OUTPUT CONTROL FOR STRESS PERIOD   21   TIME STEP   25
 
 SOLVING FOR HEAD 
                                                   Max.-Head-Change                         Max.-Flux-Residual
  Residual-Control   Outer-Iter.   Inner-Iter.     Column Row Layer    Maximum-Head-Change  Column Row Layer    Maximum-Flux-Residual          L2-NORM 
          0                 1           2             3    7     1      -0.2015189446E-01       6    7    1        -0.1062009675E+01      0.3320942414E+01
          0                 2           2             5    6     1      -0.1459598897E-01       5    8    1        -0.7852190078E+00      0.2115212151E+01
          0                 3           2             4    7     1      -0.5047381759E-02       4    7    1        -0.2636662190E+00      0.6478763055E+00
          0                 4           2             4    7     1      -0.2699872994E-02       5    8    1        -0.1416812393E+00      0.3464229247E+00
          0                 5           2             4    7     1      -0.1332503230E-02       4    7    1        -0.6957163673E-01      0.1703021757E+00
          0                 6           2             4    7     1      -0.6680543103E-03       5    6    1        -0.3488477144E-01      0.8544448695E-01
          0                 7           2             4    7     1      -0.3338423196E-03       4    7    1        -0.1742991409E-01      0.4269231825E-01
          0                 8           2             4    7     1      -0.1669487770E-03       4    7    1        -0.8716388536E-02      0.2135031914E-01
          0                 9           1             4    7     1      -0.8346706113E-04       4    7    1        -0.4357812687E-02      0.1067415963E-01

    ------------------------------------------------
       NWT REQUIRED            9 OUTER ITERATIONS 
       AND A TOTAL OF         17 INNER ITERATIONS.
    ------------------------------------------------

 NO OUTPUT CONTROL FOR STRESS PERIOD   21   TIME STEP   26
 
 SOLVING FOR HEAD 
                                                   Max.-Head-Change                         Max.-Flux-Residual
  Residual-Control   Outer-Iter.   Inner-Iter.     Column Row Layer    Maximum-Head-Change  Column Row Layer    Maximum-Flux-Residual          L2-NORM 
          0                 1           2             3    7     1      -0.2028585464E-01       6    7    1        -0.1062504756E+01      0.3305746259E+01
          0                 2           2             5    6     1      -0.1466754998E-01       5    8    1        -0.7890302302E+00      0.2124372221E+01
          0                 3           2             4    7     1      -0.5053537809E-02       4    7    1        -0.2639848419E+00      0.6487534743E+00
          0                 4           2             4    7     1      -0.2706855325E-02       5    8    1        -0.1420365316E+00      0.3473016985E+00
          0                 5           2             4    7     1      -0.1335624514E-02       4    7    1        -0.6973449300E-01      0.1707024661E+00
          0                 6           2             4    7     1      -0.6696428078E-03       5    6    1        -0.3496757171E-01      0.8564739676E-01
          0                 7           2             4    7     1      -0.3346337833E-03       4    7    1        -0.1747121535E-01      0.4279349680E-01
          0                 8           2             4    7     1      -0.1673447866E-03       4    7    1        -0.8737053823E-02      0.2140093605E-01
          0                 9           1             4    7     1      -0.8365590547E-04       4    7    1        -0.4367667049E-02      0.1069829731E-01

    ------------------------------------------------
       NWT REQUIRED            9 OUTER ITERATIONS 
       AND A TOTAL OF         17 INNER ITERATIONS.
    ------------------------------------------------

 NO OUTPUT CONTROL FOR STRESS PERIOD   21   TIME STEP   27
 
 SOLVING FOR HEAD 
                                                   Max.-Head-Change                         Max.-Flux-Residual
  Residual-Control   Outer-Iter.   Inner-Iter.     Column Row Layer    Maximum-Head-Change  Column Row Layer    Maximum-Flux-Residual          L2-NORM 
          0                 1           2             3    7     1      -0.2041416491E-01       6    7    1        -0.1062798117E+01      0.3291425298E+01
          0                 2           2             5    6     1      -0.1473846085E-01       5    8    1        -0.7928067398E+00      0.2133441229E+01
          0                 3           2             4    7     1      -0.5059740662E-02       4    7    1        -0.2643059257E+00      0.6496365075E+00
          0                 4           2             4    7     1      -0.2713823828E-02       5    8    1        -0.1423911230E+00      0.3481787280E+00
          0                 5           2             4    7     1      -0.1338701510E-02       4    7    1        -0.6989503734E-01      0.1710970908E+00
          0                 6           2             4    7     1      -0.6712265974E-03       5    6    1        -0.3505012658E-01      0.8584970531E-01
          0                 7           2             4    7     1      -0.3354257154E-03       4    7    1        -0.1751254117E-01      0.4289473554E-01
          0                 8           2             4    7     1      -0.1677407494E-03       4    7    1        -0.8757716675E-02      0.2145154696E-01
          0                 9           1             4    7     1      -0.8386301980E-04       4    7    1        -0.4378475302E-02      0.1072477161E-01

    ------------------------------------------------
       NWT REQUIRED            9 OUTER ITERATIONS 
       AND A TOTAL OF         17 INNER ITERATIONS.
    ------------------------------------------------

 NO OUTPUT CONTROL FOR STRESS PERIOD   21   TIME STEP   28
 
 SOLVING FOR HEAD 
                                                   Max.-Head-Change                         Max.-Flux-Residual
  Residual-Control   Outer-Iter.   Inner-Iter.     Column Row Layer    Maximum-Head-Change  Column Row Layer    Maximum-Flux-Residual          L2-NORM 
          0                 1           2             3    7     1      -0.2053649957E-01       6    7    1        -0.1062872004E+01      0.3277914621E+01
          0                 2           2             5    6     1      -0.1480881783E-01       5    8    1        -0.7965513388E+00      0.2142442370E+01
          0                 3           2             4    7     1      -0.5065965909E-02       4    7    1        -0.2646281934E+00      0.6505226308E+00
          0                 4           2             4    7     1      -0.2720785511E-02       5    8    1        -0.1427453745E+00      0.3490549110E+00
          0                 5           2             4    7     1      -0.1341797446E-02       4    7    1        -0.7005657091E-01      0.1714941349E+00
          0                 6           2             4    7     1      -0.6728176226E-03       5    6    1        -0.3513305970E-01      0.8605293975E-01
          0                 7           2             4    7     1      -0.3361986563E-03       4    7    1        -0.1755287553E-01      0.4299354563E-01
          0                 8           2             4    7     1      -0.1681386099E-03       4    7    1        -0.8778478664E-02      0.2150240073E-01
          0                 9           1             4    7     1      -0.8406081112E-04       4    7    1        -0.4388796814E-02      0.1075005360E-01

    ------------------------------------------------
       NWT REQUIRED            9 OUTER ITERATIONS 
       AND A TOTAL OF         17 INNER ITERATIONS.
    ------------------------------------------------

 NO OUTPUT CONTROL FOR STRESS PERIOD   21   TIME STEP   29
 
 SOLVING FOR HEAD 
                                                   Max.-Head-Change                         Max.-Flux-Residual
  Residual-Control   Outer-Iter.   Inner-Iter.     Column Row Layer    Maximum-Head-Change  Column Row Layer    Maximum-Flux-Residual          L2-NORM 
          0                 1           2             3    7     1      -0.2065401311E-01       6    7    1        -0.1062753453E+01      0.3265195951E+01
          0                 2           2             5    6     1      -0.1487873027E-01       5    8    1        -0.8002732784E+00      0.2151390909E+01
          0                 3           2             4    7     1      -0.5072287394E-02       4    7    1        -0.2649555053E+00      0.6514207238E+00
          0                 4           2             4    7     1      -0.2727714722E-02       5    8    1        -0.1430979718E+00      0.3499269948E+00
          0                 5           2             4    7     1      -0.1344896621E-02       4    7    1        -0.7021827410E-01      0.1718915893E+00
          0                 6           2             4    7     1      -0.6744083201E-03       5    6    1        -0.3521597612E-01      0.8625613331E-01
          0                 7           2             4    7     1      -0.3370081599E-03       4    7    1        -0.1759511892E-01      0.4309703202E-01
          0                 8           2             4    7     1      -0.1685145471E-03       4    7    1        -0.8798096089E-02      0.2155045086E-01
          0                 9           1             4    7     1      -0.8426079453E-04       4    7    1        -0.4399232799E-02      0.1077561602E-01

    ------------------------------------------------
       NWT REQUIRED            9 OUTER ITERATIONS 
       AND A TOTAL OF         17 INNER ITERATIONS.
    ------------------------------------------------

 NO OUTPUT CONTROL FOR STRESS PERIOD   21   TIME STEP   30



 STREAM LISTING     PERIOD     21   STEP       30

 LAYER ROW COL. STREAM  RCH.  FLOW INTO     FLOW TO   FLOW OUT OF   OVRLND.     DIRECT     STREAM       STREAM     STREAM     STREAM   STREAMBED  STREAMBED
                SEG.NO.  NO.  STRM. RCH.    AQUIFER    STRM. RCH.    RUNOFF     PRECIP       ET          HEAD       DEPTH      WIDTH   CONDCTNC.   GRADIENT

   1    1    1     1     1    2.7750E+01  2.5751E-01   2.7493E+01  0.000E+00  0.000E+00  0.000E+00  1.09427E+03  1.218E+00  1.357E+01  6.105E-02  1.406E+00
   1    2    2     1     2    2.7493E+01  3.9833E-01   2.7095E+01  0.000E+00  0.000E+00  0.000E+00  1.08927E+03  1.213E+00  1.351E+01  9.454E-02  1.404E+00
   1    3    3     1     3    2.7095E+01  3.3924E-01   2.6755E+01  0.000E+00  0.000E+00  0.000E+00  1.08363E+03  1.208E+00  1.344E+01  8.062E-02  1.403E+00
   1    3    4     1     4    2.6755E+01  3.1201E-01   2.6443E+01  0.000E+00  0.000E+00  0.000E+00  1.07861E+03  1.203E+00  1.337E+01  7.423E-02  1.401E+00
   1    4    5     2     1    2.4443E+01  3.2655E-01   2.4117E+01  0.000E+00  0.000E+00  0.000E+00  1.07312E+03  1.187E+00  1.200E+01  7.800E-02  1.396E+00
   1    5    6     2     2    2.4117E+01  2.5069E-01   2.3866E+01  0.000E+00  0.000E+00  0.000E+00  1.06769E+03  1.178E+00  1.200E+01  6.000E-02  1.393E+00
   1    6    6     2     3    2.3866E+01  2.5024E-01   2.3616E+01  0.000E+00  0.000E+00  0.000E+00  1.06296E+03  1.171E+00  1.200E+01  6.000E-02  1.390E+00
   1    7    6     2     4    2.3616E+01  2.4980E-01   2.3366E+01  0.000E+00  0.000E+00  0.000E+00  1.05824E+03  1.163E+00  1.200E+01  6.000E-02  1.388E+00
   1    8    6     2     5    2.3366E+01  2.4935E-01   2.3117E+01  0.000E+00  0.000E+00  0.000E+00  1.05351E+03  1.156E+00  1.200E+01  6.000E-02  1.385E+00
   1    3    5     3     1    2.0000E+00  2.8252E-01   1.7175E+00  0.000E+00  0.000E+00  0.000E+00  1.07555E+03  1.909E+00  9.636E+00  7.227E-02  1.955E+00
   1    3    6     3     2    1.7175E+00  2.4905E-01   1.4684E+00  0.000E+00  0.000E+00  0.000E+00  1.07264E+03  1.727E+00  8.909E+00  6.682E-02  1.864E+00
   1    3    7     3     3    1.4684E+00  1.9718E-01   1.2712E+00  0.000E+00  0.000E+00  0.000E+00  1.06987E+03  1.555E+00  8.218E+00  5.547E-02  1.777E+00
   1    4    8     3     4    1.2712E+00  2.2567E-01   1.0456E+00  0.000E+00  0.000E+00  0.000E+00  1.06682E+03  1.364E+00  7.455E+00  6.709E-02  1.682E+00
   1    5    8     3     5    1.0456E+00  1.5790E-01   8.8768E-01  0.000E+00  0.000E+00  0.000E+00  1.06362E+03  1.164E+00  6.655E+00  4.991E-02  1.582E+00
   1    6    8     3     6    8.8768E-01  5.5980E-02   8.3170E-01  0.000E+00  0.000E+00  0.000E+00  1.06158E+03  1.036E+00  6.145E+00  1.844E-02  1.518E+00
   1    5   10     4     1    1.0000E+01  9.0919E-02   9.9091E+00  0.000E+00  0.000E+00  0.000E+00  1.07836E+03  6.368E-01  1.000E+01  2.500E-02  1.212E+00
   1    5    9     4     2    9.9091E+00  1.8158E-01   9.7275E+00  0.000E+00  0.000E+00  0.000E+00  1.07154E+03  6.315E-01  1.000E+01  5.000E-02  1.211E+00
   1    6    8     4     3    9.7275E+00  1.2689E-01   9.6006E+00  0.000E+00  0.000E+00  0.000E+00  1.06381E+03  6.256E-01  1.000E+01  3.500E-02  1.209E+00
   1    6    8     5     1    1.0432E+01  2.2686E-01   1.0205E+01  0.000E+00  0.000E+00  0.000E+00  1.05868E+03  6.790E-01  1.542E+01  6.166E-02  1.226E+00
   1    7    7     5     2    1.0205E+01  2.7894E-01   9.9265E+00  0.000E+00  0.000E+00  0.000E+00  1.05417E+03  6.732E-01  1.519E+01  7.594E-02  1.224E+00
   1    8    7     5     3    9.9265E+00  1.9221E-01   9.7343E+00  0.000E+00  0.000E+00  0.000E+00  1.04992E+03  6.676E-01  1.497E+01  5.241E-02  1.223E+00
   1    8    6     5     4    9.7343E+00  1.3577E-01   9.5985E+00  0.000E+00  0.000E+00  0.000E+00  1.04691E+03  6.637E-01  1.482E+01  3.706E-02  1.221E+00
   1    9    6     6     1    9.5985E+00  2.2097E-01   9.3776E+00  0.000E+00  0.000E+00  0.000E+00  1.04341E+03  6.828E-01  1.200E+01  6.000E-02  1.228E+00
   1   10    7     6     2    9.3776E+00  2.2039E-01   9.1572E+00  0.000E+00  0.000E+00  0.000E+00  1.03885E+03  6.732E-01  1.200E+01  6.000E-02  1.224E+00
   1   11    7     6     3    9.1572E+00  2.1981E-01   8.9374E+00  0.000E+00  0.000E+00  0.000E+00  1.03430E+03  6.636E-01  1.200E+01  6.000E-02  1.221E+00
   1   12    7     6     4    8.9374E+00  2.1923E-01   8.7181E+00  0.000E+00  0.000E+00  0.000E+00  1.02974E+03  6.539E-01  1.200E+01  6.000E-02  1.218E+00
   1   13    7     6     5    8.7181E+00 -1.2414E-01   8.8423E+00  0.000E+00  0.000E+00  0.000E+00  1.02656E+03  6.517E-01  1.200E+01  2.400E-01 -1.724E-01
   1   14    9     7     1    1.5000E+02  1.3360E+00   1.4866E+02  0.000E+00  0.000E+00  0.000E+00  1.03987E+03  2.288E+00  5.529E+01  5.593E-01  7.962E-01
   1   13    8     7     2    1.4866E+02  1.8251E+00   1.4684E+02  0.000E+00  0.000E+00  0.000E+00  1.03478E+03  2.279E+00  5.526E+01  6.148E-01  9.896E-01
   1   13    7     7     3    1.4684E+02  1.4586E+00   1.4538E+02  0.000E+00  0.000E+00  0.000E+00  1.02969E+03  2.271E+00  5.522E+01  5.585E-01  8.706E-01
   1   13    6     8     1    1.5422E+02  8.1356E-01   1.5341E+02  0.000E+00  0.000E+00  0.000E+00  1.02472E+03  2.843E+00  4.123E+01  4.202E-01  6.454E-01
   1   13    5     8     2    1.5341E+02  9.0019E-02   1.5332E+02  0.000E+00  0.000E+00  0.000E+00  1.01847E+03  2.840E+00  4.119E+01  4.197E-01  7.150E-02
   1   13    4     8     3    1.5332E+02 -2.6996E+00   1.5602E+02  0.000E+00  0.000E+00  0.000E+00  1.01222E+03  2.849E+00  4.132E+01  4.210E+00 -2.137E-01
   1   13    3     8     4    1.5602E+02 -3.7679E+00   1.5979E+02  0.000E+00  0.000E+00  0.000E+00  1.00600E+03  2.872E+00  4.164E+01  4.243E+00 -2.960E-01
   1   13    2     8     5    1.5979E+02 -2.6155E+00   1.6240E+02  0.000E+00  0.000E+00  0.000E+00  9.99768E+02  2.893E+00  4.195E+01  4.275E+00 -2.039E-01
   1   13    1     8     6    1.6240E+02 -2.0004E+00   1.6440E+02  0.000E+00  0.000E+00  0.000E+00  9.94784E+02  2.909E+00  4.218E+01  2.579E+00 -2.586E-01
   1    8    6     9     1    2.3117E+01  0.0000E+00   2.3117E+01  0.000E+00  0.000E+00  0.000E+00  1.08250E+03  3.747E+00  4.000E+00  0.000E+00  2.249E+00
   1    8    5     9     2    2.3117E+01  0.0000E+00   2.3117E+01  0.000E+00  0.000E+00  0.000E+00  1.08200E+03  3.747E+00  4.000E+00  0.000E+00  2.249E+00





UNSATURATED ZONE PACKAGE VOLUMETRIC BUDGET FOR  TIME STEP    30 STRESS PERIOD   21
  ------------------------------------------------------------------------------



     CUMULATIVE VOLUMES      L**3       RATES FOR THIS TIME STEP      L**3/T
     ------------------                 ------------------------

           IN:                                      IN:
           ---                                      ---
        INFILTRATION =  1001834845.0071          INFILTRATION =          52.9508

          OUT:                                     OUT:
          ----                                     ----
              UZF ET =   943410747.8414                UZF ET =          52.8417
        UZF RECHARGE =      654716.9165          UZF RECHARGE =       0.0000E+00

            IN - OUT =    57769380.2491              IN - OUT =           0.1092

          STORAGE:                                 STORAGE:
          --------                                 --------
      STORAGE CHANGE =    57769970.8975        STORAGE CHANGE =           0.1092

 PERCENT DISCREPANCY IS DIFFERENCE BETWEEN IN-OUT MINUS CHANGE IN STORAGE
 DIVIDED BY THE AVERAGE OF IN AND OUT TIMES 100

 PERCENT DISCREPANCY =          -0.00     PERCENT DISCREPANCY =           0.00






1
  VOLUMETRIC BUDGET FOR AGRICULTURAL FIELDS AT TIME STEP   30, STRESS PERIOD  21
  ------------------------------------------------------------------------------

     CUMULATIVE VOLUMES      L**3       RATES FOR THIS TIME STEP      L**3/T
     ------------------                 ------------------------

           IN:                                      IN:
           ---                                      ---
               AG WELLS  =   175546176.0000                 AG WELLS  =          25.4262
      DIVERSION SEGMENTS =   594369344.0000        DIVERSION SEGMENTS =          23.1167
           GW IRRIGATION =           0.0000             GW IRRIGATION =           0.0000
           SW IRRIGATION =           0.0000             SW IRRIGATION =           0.0000
        SYSTEM LOSSES GW =           0.0000          SYSTEM LOSSES GW =           0.0000
        SYSTEM LOSSES SW =           0.0000          SYSTEM LOSSES SW =           0.0000

                TOTAL IN =   769915520.0000                  TOTAL IN =          48.5429

          OUT:                                     OUT:
          ----                                     ----
               AG WELLS  =           0.0000                 AG WELLS  =           0.0000
      DIVERSION SEGMENTS =           0.0000        DIVERSION SEGMENTS =           0.0000
           GW IRRIGATION =   175546176.0000             GW IRRIGATION =          25.4262
           SW IRRIGATION =   594381952.0000             SW IRRIGATION =          23.1172
        SYSTEM LOSSES GW =           0.0000          SYSTEM LOSSES GW =           0.0000
        SYSTEM LOSSES SW =           0.0000          SYSTEM LOSSES SW =           0.0000

               TOTAL OUT =   769928128.0000                 TOTAL OUT =          48.5433

                IN - OUT =      -12608.0000                  IN - OUT =      -4.6158E-04

     PERCENT DISCREPANCY =          -0.00         PERCENT DISCREPANCY =          -0.00



1
  VOLUMETRIC BUDGET FOR ENTIRE MODEL AT END OF TIME STEP   30, STRESS PERIOD  21
  ------------------------------------------------------------------------------

     CUMULATIVE VOLUMES      L**3       RATES FOR THIS TIME STEP      L**3/T
     ------------------                 ------------------------

           IN:                                      IN:
           ---                                      ---
             STORAGE     =   226958688.0000               STORAGE     =          25.5425
       CONSTANT HEAD     =           0.0000         CONSTANT HEAD     =           0.0000
     HEAD DEP BOUNDS     =    15055254.0000       HEAD DEP BOUNDS     =           0.2858
      STREAM LEAKAGE     =   630955520.0000        STREAM LEAKAGE     =          11.4389
        UZF RECHARGE     =      654716.8125          UZF RECHARGE     =           0.0000
               GW ET     =           0.0000                 GW ET     =           0.0000
     SURFACE LEAKAGE     =           0.0000       SURFACE LEAKAGE     =           0.0000
           AG WELLS      =           0.0000             AG WELLS      =           0.0000

                TOTAL IN =   873624192.0000                  TOTAL IN =          37.2671

          OUT:                                     OUT:
          ----                                     ----
             STORAGE     =   106689088.0000               STORAGE     =           0.3435
       CONSTANT HEAD     =           0.0000         CONSTANT HEAD     =           0.0000
     HEAD DEP BOUNDS     =    15331186.0000       HEAD DEP BOUNDS     =           0.2873
      STREAM LEAKAGE     =   573766208.0000        STREAM LEAKAGE     =          11.2076
        UZF RECHARGE     =           0.0000          UZF RECHARGE     =           0.0000
               GW ET     =     2260364.5000                 GW ET     =           0.0000
     SURFACE LEAKAGE     =           0.0000       SURFACE LEAKAGE     =           0.0000
           AG WELLS      =   175546176.0000             AG WELLS      =          25.4262

               TOTAL OUT =   873593024.0000                 TOTAL OUT =          37.2645

                IN - OUT =       31168.0000                  IN - OUT =       2.6169E-03

     PERCENT DISCREPANCY =           0.00         PERCENT DISCREPANCY =           0.01






         TIME SUMMARY AT END OF TIME STEP   30 IN STRESS PERIOD   21
                    SECONDS     MINUTES      HOURS       DAYS        YEARS
                    -----------------------------------------------------------
   TIME STEP LENGTH  87667.      1461.1      24.352      1.0147     2.77799E-03
 STRESS PERIOD TIME 2.63000E+06  43833.      730.56      30.440     8.33397E-02
         TOTAL TIME 5.26866E+07 8.78110E+05  14635.      609.80      1.6695    
1
1
                            STRESS PERIOD NO.   22, LENGTH =   2630000.    
                            -----------------------------------------------

                              NUMBER OF TIME STEPS =    30

                               MULTIPLIER FOR DELT =     1.000

                            INITIAL TIME STEP SIZE =   87666.66    

 REUSING NON-PARAMETER GHB CELLS FROM LAST STRESS PERIOD

      2 GHB CELLS

 REUSING STREAM SEGMENT DATA FROM LAST STRESS PERIOD



            AREAL INFILTRATION RATE
 READING ON UNIT   19 WITH FORMAT: (10F4.0)            

            1           2           3           4           5           6           7           8           9          10
 ........................................................................................................................
   1   1.2000E-09   0.000       0.000       0.000       0.000       0.000       0.000       0.000       0.000       0.000    
   2   2.1000E-09  2.0000E-09  8.0000E-10  8.5000E-09   0.000       0.000       0.000       0.000       0.000       0.000    
   3   5.0000E-10  1.1000E-09  8.8000E-09  5.5000E-09   0.000       0.000       0.000       0.000       0.000       0.000    
   4   8.5000E-09  1.1000E-09  1.1000E-09  1.1000E-09  2.0000E-09   0.000       0.000       0.000       0.000       0.000    
   5   8.5000E-09  1.1000E-09  1.1000E-09  1.1000E-09  1.1000E-09   0.000       0.000       0.000       0.000       0.000    
   6   8.5000E-09  5.2000E-09  2.1000E-09  1.1000E-09  1.5000E-09   0.000       0.000       0.000       0.000       0.000    
   7   8.5000E-09  5.2000E-09  2.1000E-09  1.2000E-09  2.0000E-09   0.000       0.000       0.000       0.000       0.000    
   8   5.0000E-10  5.2000E-09  2.1000E-09  1.2000E-09  5.0000E-09   0.000       0.000       0.000       0.000       0.000    
   9   5.0000E-10  5.2000E-09  2.1000E-09  1.2000E-09  5.0000E-09   0.000       0.000       0.000       0.000       0.000    
  10   5.0000E-10  5.2000E-09  2.1000E-09  1.2000E-09  5.8000E-09   0.000       0.000       0.000       0.000       0.000    
  11   1.0000E-10  1.1000E-09  1.1000E-09  1.2000E-09  5.0000E-09   0.000       0.000       0.000       0.000       0.000    
  12   1.1000E-09  1.1000E-09  1.1000E-09  1.1000E-09  2.0000E-09   0.000       0.000       0.000       0.000       0.000    
  13   1.1000E-09  2.2000E-09  2.2000E-09  2.1000E-09  1.0000E-09   0.000       0.000       0.000       0.000       0.000    
  14   2.0000E-10  5.5000E-09  5.5000E-09  5.2000E-09  1.0000E-09   0.000       0.000       0.000       0.000       0.000    
  15    0.000      8.8000E-09  8.8000E-09   0.000       0.000       0.000       0.000       0.000       0.000       0.000    

                  ET RATE =  7.500000E-08

 USING ET EXTINCTION DEPTH FROM PREVIOUS STRESS PERIOD. CURRENT PERIOD IS:      22

 USING EXTINCTION WATER CONTENT FROM PREVIOUS STRESS PERIOD. CURRENT PERIOD IS:      22

 USING AIR ENTRY PRESSURE FROM PREVIOUS STRESS PERIOD. CURRENT PERIOD IS:      22

 USING ROOT PRESSURE HEAD FROM PREVIOUS STRESS PERIOD. CURRENT PERIOD IS:      22

 USING ROOT ACTIVITY FROM PREVIOUS STRESS PERIOD. CURRENT PERIOD IS:      22

 PROCESSING AG STRESS PERIOD DATA

 READING AG STRESS PERIOD DATA

 READING IRRIGATION SEGMENT

 READING IRRIGATION WELL

 READING SUPPLEMENTAL WELL

 END PROCESSING AG STRESS PERIOD DATA OPTIONS
 
 SOLVING FOR HEAD 
                                                   Max.-Head-Change                         Max.-Flux-Residual
  Residual-Control   Outer-Iter.   Inner-Iter.     Column Row Layer    Maximum-Head-Change  Column Row Layer    Maximum-Flux-Residual          L2-NORM 
          0                 1           2             5    8     1       0.4703755207E-01       5    8    1         0.2557291388E+01      0.6322157372E+01
          0                 2           2             5    8     1      -0.4575542017E-02       5    8    1        -0.2557267484E+00      0.7169620717E+00
          0                 3           2             7   13     1      -0.1075532068E-02       7   13    1        -0.5980611012E-01      0.9512993430E-01
          0                 4           2             4   13     1      -0.2409684774E-03       4   13    1        -0.1417360777E-01      0.2503075443E-01
          0                 5           2             4   13     1      -0.1235708784E-03       4   13    1        -0.7267620704E-02      0.1315160779E-01
          0                 6           1             4   13     1      -0.6173086815E-04       4   13    1        -0.3630486329E-02      0.6541298352E-02

    ------------------------------------------------
       NWT REQUIRED            6 OUTER ITERATIONS 
       AND A TOTAL OF         11 INNER ITERATIONS.
    ------------------------------------------------

 NO OUTPUT CONTROL FOR STRESS PERIOD   22   TIME STEP    1
 
 SOLVING FOR HEAD 
                                                   Max.-Head-Change                         Max.-Flux-Residual
  Residual-Control   Outer-Iter.   Inner-Iter.     Column Row Layer    Maximum-Head-Change  Column Row Layer    Maximum-Flux-Residual          L2-NORM 
          0                 1           2             5    6     1       0.4505185346E-01       5    8    1         0.2444378734E+01      0.6114129162E+01
          0                 2           2             5    6     1      -0.4382284199E-02       5    8    1        -0.2444356608E+00      0.6974789273E+00
          0                 3           2             4   13     1      -0.5942921928E-03       4   13    1        -0.3494364352E-01      0.7669399306E-01
          0                 4           2             4   13     1      -0.2367389468E-03       4   13    1        -0.1392197036E-01      0.2515592716E-01
          0                 5           2             4   13     1      -0.1226907776E-03       4   13    1        -0.7214415332E-02      0.1303752429E-01
          0                 6           1             4   13     1      -0.6113995818E-04       4   13    1        -0.3595003970E-02      0.6499924446E-02

    ------------------------------------------------
       NWT REQUIRED            6 OUTER ITERATIONS 
       AND A TOTAL OF         11 INNER ITERATIONS.
    ------------------------------------------------

 NO OUTPUT CONTROL FOR STRESS PERIOD   22   TIME STEP    2
 
 SOLVING FOR HEAD 
                                                   Max.-Head-Change                         Max.-Flux-Residual
  Residual-Control   Outer-Iter.   Inner-Iter.     Column Row Layer    Maximum-Head-Change  Column Row Layer    Maximum-Flux-Residual          L2-NORM 
          0                 1           2             5    6     1       0.4324251319E-01       5    6    1         0.2341440895E+01      0.5920339755E+01
          0                 2           2             5    6     1      -0.4206287196E-02       5    6    1        -0.2341420014E+00      0.6801897853E+00
          0                 3           2             4   13     1      -0.5977869071E-03       4   13    1        -0.3514937080E-01      0.7623318841E-01
          0                 4           2             4   13     1      -0.2348791854E-03       4   13    1        -0.1381255285E-01      0.2497363975E-01
          0                 5           2             4   13     1      -0.1219850210E-03       4   13    1        -0.7172921345E-02      0.1296146151E-01
          0                 6           1             4   13     1      -0.6077317360E-04       4   13    1        -0.3573441409E-02      0.6460084232E-02

    ------------------------------------------------
       NWT REQUIRED            6 OUTER ITERATIONS 
       AND A TOTAL OF         11 INNER ITERATIONS.
    ------------------------------------------------

 NO OUTPUT CONTROL FOR STRESS PERIOD   22   TIME STEP    3
 
 SOLVING FOR HEAD 
                                                   Max.-Head-Change                         Max.-Flux-Residual
  Residual-Control   Outer-Iter.   Inner-Iter.     Column Row Layer    Maximum-Head-Change  Column Row Layer    Maximum-Flux-Residual          L2-NORM 
          0                 1           2             5    6     1       0.4153748543E-01       5    6    1         0.2247430015E+01      0.5737272215E+01
          0                 2           2             5    6     1      -0.4040436753E-02       5    6    1        -0.2247410693E+00      0.6639675657E+00
          0                 3           2             4   13     1      -0.6012872290E-03       4   13    1        -0.3535542178E-01      0.7585693757E-01
          0                 4           2             4   13     1      -0.2330450345E-03       4   13    1        -0.1370462036E-01      0.2476898373E-01
          0                 5           2             4   13     1      -0.1213130834E-03       4   13    1        -0.7133399855E-02      0.1289171049E-01
          0                 6           1             4   13     1      -0.6040706442E-04       4   13    1        -0.3551906962E-02      0.6421893987E-02

    ------------------------------------------------
       NWT REQUIRED            6 OUTER ITERATIONS 
       AND A TOTAL OF         11 INNER ITERATIONS.
    ------------------------------------------------

 NO OUTPUT CONTROL FOR STRESS PERIOD   22   TIME STEP    4
 
 SOLVING FOR HEAD 
                                                   Max.-Head-Change                         Max.-Flux-Residual
  Residual-Control   Outer-Iter.   Inner-Iter.     Column Row Layer    Maximum-Head-Change  Column Row Layer    Maximum-Flux-Residual          L2-NORM 
          0                 1           2             5    6     1       0.3992888436E-01       5    6    1         0.2158794592E+01      0.5564127382E+01
          0                 2           2             5    6     1      -0.3883965811E-02       5    6    1        -0.2158776703E+00      0.6487312956E+00
          0                 3           2             4   13     1      -0.6046830301E-03       4   13    1        -0.3555523459E-01      0.7552416493E-01
          0                 4           2             4   13     1      -0.2313884509E-03       4   13    1        -0.1360720326E-01      0.2458983276E-01
          0                 5           1             4   13     1      -0.1206944246E-03       4   13    1        -0.7097027672E-02      0.1282461027E-01
          0                 6           1             4   13     1      -0.6006397326E-04       4   13    1        -0.3531730263E-02      0.6385684844E-02

    ------------------------------------------------
       NWT REQUIRED            6 OUTER ITERATIONS 
       AND A TOTAL OF         10 INNER ITERATIONS.
    ------------------------------------------------

 NO OUTPUT CONTROL FOR STRESS PERIOD   22   TIME STEP    5
 
 SOLVING FOR HEAD 
                                                   Max.-Head-Change                         Max.-Flux-Residual
  Residual-Control   Outer-Iter.   Inner-Iter.     Column Row Layer    Maximum-Head-Change  Column Row Layer    Maximum-Flux-Residual          L2-NORM 
          0                 1           2             5    6     1       0.3841062587E-01       5    6    1         0.2075191820E+01      0.5400179795E+01
          0                 2           2             5    6     1      -0.3736282571E-02       5    6    1        -0.2075175247E+00      0.6344038023E+00
          0                 3           2             4   13     1      -0.6081264979E-03       4   13    1        -0.3575785680E-01      0.7524346433E-01
          0                 4           2             4   13     1      -0.2297911738E-03       4   13    1        -0.1351325295E-01      0.2442084723E-01
          0                 5           1             4   13     1      -0.1200809571E-03       4   13    1        -0.7060940925E-02      0.1275695994E-01
          0                 6           1             4   13     1      -0.5974175107E-04       4   13    1        -0.3512785847E-02      0.6354993954E-02

    ------------------------------------------------
       NWT REQUIRED            6 OUTER ITERATIONS 
       AND A TOTAL OF         10 INNER ITERATIONS.
    ------------------------------------------------

 NO OUTPUT CONTROL FOR STRESS PERIOD   22   TIME STEP    6
 
 SOLVING FOR HEAD 
                                                   Max.-Head-Change                         Max.-Flux-Residual
  Residual-Control   Outer-Iter.   Inner-Iter.     Column Row Layer    Maximum-Head-Change  Column Row Layer    Maximum-Flux-Residual          L2-NORM 
          0                 1           2             5    6     1       0.3697678468E-01       5    6    1         0.1996289732E+01      0.5244773497E+01
          0                 2           2             5    6     1      -0.3596810676E-02       5    6    1        -0.1996274369E+00      0.6209254926E+00
          0                 3           2             4   13     1      -0.6115833342E-03       4   13    1        -0.3596123580E-01      0.7500687265E-01
          0                 4           2             4   13     1      -0.2282359954E-03       4   13    1        -0.1342177962E-01      0.2425351122E-01
          0                 5           1             4   13     1      -0.1195064971E-03       4   13    1        -0.7027160187E-02      0.1269818935E-01
          0                 6           1             4   13     1      -0.5942641461E-04       4   13    1        -0.3494226629E-02      0.6321268296E-02

    ------------------------------------------------
       NWT REQUIRED            6 OUTER ITERATIONS 
       AND A TOTAL OF         10 INNER ITERATIONS.
    ------------------------------------------------

 NO OUTPUT CONTROL FOR STRESS PERIOD   22   TIME STEP    7
 
 SOLVING FOR HEAD 
                                                   Max.-Head-Change                         Max.-Flux-Residual
  Residual-Control   Outer-Iter.   Inner-Iter.     Column Row Layer    Maximum-Head-Change  Column Row Layer    Maximum-Flux-Residual          L2-NORM 
          0                 1           2             5    7     1       0.3616416463E-01       5    6    1         0.1921781110E+01      0.5097312165E+01
          0                 2           2             5    7     1      -0.3517779662E-02       5    6    1        -0.1921766860E+00      0.6084292863E+00
          0                 3           2             4   13     1      -0.6122694081E-03       4   13    1        -0.3600161849E-01      0.7457330231E-01
          0                 4           2             4   13     1      -0.2263632977E-03       4   13    1        -0.1331162393E-01      0.2405436193E-01
          0                 5           1             4   13     1      -0.1187216244E-03       4   13    1        -0.6981012023E-02      0.1261551725E-01
          0                 6           1             4   13     1      -0.5900447757E-04       4   13    1        -0.3469462247E-02      0.6272196294E-02

    ------------------------------------------------
       NWT REQUIRED            6 OUTER ITERATIONS 
       AND A TOTAL OF         10 INNER ITERATIONS.
    ------------------------------------------------

 NO OUTPUT CONTROL FOR STRESS PERIOD   22   TIME STEP    8
 
 SOLVING FOR HEAD 
                                                   Max.-Head-Change                         Max.-Flux-Residual
  Residual-Control   Outer-Iter.   Inner-Iter.     Column Row Layer    Maximum-Head-Change  Column Row Layer    Maximum-Flux-Residual          L2-NORM 
          0                 1           2             5    7     1       0.3540501624E-01       5    7    1         0.1879527734E+01      0.4957223746E+01
          0                 2           2             5    7     1      -0.3443937211E-02       4   13    1        -0.1893821959E+00      0.5963617307E+00
          0                 3           2             4   13     1      -0.6169148640E-03       4   13    1        -0.3627491042E-01      0.7453478066E-01
          0                 4           2             4   13     1      -0.2251214206E-03       4   13    1        -0.1323857593E-01      0.2392146991E-01
          0                 5           1             4   13     1      -0.1183154937E-03       4   13    1        -0.6957124275E-02      0.1257323772E-01
          0                 6           1             4   13     1      -0.5879184671E-04       4   13    1        -0.3456921379E-02      0.6250689543E-02

    ------------------------------------------------
       NWT REQUIRED            6 OUTER ITERATIONS 
       AND A TOTAL OF         10 INNER ITERATIONS.
    ------------------------------------------------

 NO OUTPUT CONTROL FOR STRESS PERIOD   22   TIME STEP    9
 
 SOLVING FOR HEAD 
                                                   Max.-Head-Change                         Max.-Flux-Residual
  Residual-Control   Outer-Iter.   Inner-Iter.     Column Row Layer    Maximum-Head-Change  Column Row Layer    Maximum-Flux-Residual          L2-NORM 
          0                 1           2             5    7     1       0.3466111639E-01       5    7    1         0.1840067742E+01      0.4824002711E+01
          0                 2           2             5    7     1      -0.3371577783E-02       4   13    1        -0.1891649839E+00      0.5851992673E+00
          0                 3           2             4   13     1      -0.6185526463E-03       4   13    1        -0.3637121425E-01      0.7425549700E-01
          0                 4           2             4   13     1      -0.2235004776E-03       4   13    1        -0.1314324487E-01      0.2374831338E-01
          0                 5           1             4   13     1      -0.1176621890E-03       4   13    1        -0.6918700760E-02      0.1250336804E-01
          0                 6           1             4   13     1      -0.5844892744E-04       4   13    1        -0.3436756565E-02      0.6214091636E-02

    ------------------------------------------------
       NWT REQUIRED            6 OUTER ITERATIONS 
       AND A TOTAL OF         10 INNER ITERATIONS.
    ------------------------------------------------

 NO OUTPUT CONTROL FOR STRESS PERIOD   22   TIME STEP   10
 
 SOLVING FOR HEAD 
                                                   Max.-Head-Change                         Max.-Flux-Residual
  Residual-Control   Outer-Iter.   Inner-Iter.     Column Row Layer    Maximum-Head-Change  Column Row Layer    Maximum-Flux-Residual          L2-NORM 
          0                 1           2             4    7     1       0.3416792941E-01       5    7    1         0.1801414851E+01      0.4697181195E+01
          0                 2           2             4    7     1      -0.3323608009E-02       4   13    1        -0.1882921375E+00      0.5739607757E+00
          0                 3           2             4   13     1      -0.6289472849E-03       4   13    1        -0.3698261920E-01      0.7483129879E-01
          0                 4           2             4   13     1      -0.2231185982E-03       4   13    1        -0.1312075519E-01      0.2371009517E-01
          0                 5           1             4   13     1      -0.1178659529E-03       4   13    1        -0.6930703345E-02      0.1252263702E-01
          0                 6           1             4   13     1      -0.5851534878E-04       4   13    1        -0.3440656431E-02      0.6221634755E-02

    ------------------------------------------------
       NWT REQUIRED            6 OUTER ITERATIONS 
       AND A TOTAL OF         10 INNER ITERATIONS.
    ------------------------------------------------

 NO OUTPUT CONTROL FOR STRESS PERIOD   22   TIME STEP   11
 
 SOLVING FOR HEAD 
                                                   Max.-Head-Change                         Max.-Flux-Residual
  Residual-Control   Outer-Iter.   Inner-Iter.     Column Row Layer    Maximum-Head-Change  Column Row Layer    Maximum-Flux-Residual          L2-NORM 
          0                 1           2             4    7     1       0.3389488310E-01       4    7    1         0.1775328964E+01      0.4576334489E+01
          0                 2           2             4    7     1      -0.3297049650E-02       4   13    1        -0.1883799847E+00      0.5642756367E+00
          0                 3           2             4   13     1      -0.6272274275E-03       4   13    1        -0.3688140799E-01      0.7429792386E-01
          0                 4           2             4   13     1      -0.2223954913E-03       4   13    1        -0.1307822845E-01      0.2362938985E-01
          0                 5           1             4   13     1      -0.1162269704E-03       4   13    1        -0.6834303524E-02      0.1235112121E-01
          0                 6           1             4   13     1      -0.5779089676E-04       4   13    1        -0.3398063628E-02      0.6143518474E-02

    ------------------------------------------------
       NWT REQUIRED            6 OUTER ITERATIONS 
       AND A TOTAL OF         10 INNER ITERATIONS.
    ------------------------------------------------

 NO OUTPUT CONTROL FOR STRESS PERIOD   22   TIME STEP   12
 
 SOLVING FOR HEAD 
                                                   Max.-Head-Change                         Max.-Flux-Residual
  Residual-Control   Outer-Iter.   Inner-Iter.     Column Row Layer    Maximum-Head-Change  Column Row Layer    Maximum-Flux-Residual          L2-NORM 
          0                 1           2             4    7     1       0.3360557548E-01       4    7    1         0.1761142452E+01      0.4461058511E+01
          0                 2           2             4    7     1      -0.3268909334E-02       4   13    1        -0.1881581845E+00      0.5547899151E+00
          0                 3           2             4   13     1      -0.6297652670E-03       4   13    1        -0.3703065371E-01      0.7419110575E-01
          0                 4           2             4   13     1      -0.2234167707E-03       4   13    1        -0.1313828927E-01      0.2373505842E-01
          0                 5           1             4   13     1      -0.1143767934E-03       4   13    1        -0.6725467415E-02      0.1215643316E-01
          0                 6           1             4   13     1      -0.5704820000E-04       4   13    1        -0.3354402889E-02      0.6064219508E-02

    ------------------------------------------------
       NWT REQUIRED            6 OUTER ITERATIONS 
       AND A TOTAL OF         10 INNER ITERATIONS.
    ------------------------------------------------

 NO OUTPUT CONTROL FOR STRESS PERIOD   22   TIME STEP   13
 
 SOLVING FOR HEAD 
                                                   Max.-Head-Change                         Max.-Flux-Residual
  Residual-Control   Outer-Iter.   Inner-Iter.     Column Row Layer    Maximum-Head-Change  Column Row Layer    Maximum-Flux-Residual          L2-NORM 
          0                 1           2             4    7     1       0.3330156333E-01       4    7    1         0.1746105446E+01      0.4350982617E+01
          0                 2           2             4    7     1      -0.3239338507E-02       4   13    1        -0.1879533182E+00      0.5458127420E+00
          0                 3           2             4   13     1      -0.6321894164E-03       4   13    1        -0.3717320235E-01      0.7409869424E-01
          0                 4           2             4   13     1      -0.2244000735E-03       4   13    1        -0.1319606330E-01      0.2383891343E-01
          0                 5           1             4   13     1      -0.1126361159E-03       4   13    1        -0.6623139059E-02      0.1197241226E-01
          0                 6           1             4   13     1      -0.5630009738E-04       4   13    1        -0.3310414075E-02      0.5981840990E-02

    ------------------------------------------------
       NWT REQUIRED            6 OUTER ITERATIONS 
       AND A TOTAL OF         10 INNER ITERATIONS.
    ------------------------------------------------

 NO OUTPUT CONTROL FOR STRESS PERIOD   22   TIME STEP   14
 
 SOLVING FOR HEAD 
                                                   Max.-Head-Change                         Max.-Flux-Residual
  Residual-Control   Outer-Iter.   Inner-Iter.     Column Row Layer    Maximum-Head-Change  Column Row Layer    Maximum-Flux-Residual          L2-NORM 
          0                 1           2             4    7     1       0.3298457987E-01       4    7    1         0.1730313381E+01      0.4245785086E+01
          0                 2           2             4    7     1      -0.3208498898E-02       4   13    1        -0.1877708992E+00      0.5369781824E+00
          0                 3           2             4   13     1      -0.6345057987E-03       4   13    1        -0.3730941503E-01      0.7400454228E-01
          0                 4           2             4   13     1      -0.2253646982E-03       4   13    1        -0.1325276356E-01      0.2393969587E-01
          0                 5           1             4   13     1      -0.1109453890E-03       4   13    1        -0.6523717688E-02      0.1179043460E-01
          0                 6           1             4   13     1      -0.5558716642E-04       4   13    1        -0.3268485983E-02      0.5908972290E-02

    ------------------------------------------------
       NWT REQUIRED            6 OUTER ITERATIONS 
       AND A TOTAL OF         10 INNER ITERATIONS.
    ------------------------------------------------

 NO OUTPUT CONTROL FOR STRESS PERIOD   22   TIME STEP   15
 
 SOLVING FOR HEAD 
                                                   Max.-Head-Change                         Max.-Flux-Residual
  Residual-Control   Outer-Iter.   Inner-Iter.     Column Row Layer    Maximum-Head-Change  Column Row Layer    Maximum-Flux-Residual          L2-NORM 
          0                 1           2             4    7     1       0.3265613569E-01       4    7    1         0.1713849132E+01      0.4145486010E+01
          0                 2           2             4   13     1      -0.3187298166E-02       4   13    1        -0.1876071833E+00      0.5292829818E+00
          0                 3           2             4   13     1      -0.6367233027E-03       4   13    1        -0.3743978342E-01      0.7395020171E-01
          0                 4           2             4   13     1      -0.2262978734E-03       4   13    1        -0.1330763157E-01      0.2403183399E-01
          0                 5           1             4   13     1      -0.1093102920E-03       4   13    1        -0.6427560205E-02      0.1162322127E-01
          0                 6           1             4   13     1      -0.5493910772E-04       4   13    1        -0.3230389525E-02      0.5838575521E-02

    ------------------------------------------------
       NWT REQUIRED            6 OUTER ITERATIONS 
       AND A TOTAL OF         10 INNER ITERATIONS.
    ------------------------------------------------

 NO OUTPUT CONTROL FOR STRESS PERIOD   22   TIME STEP   16
 
 SOLVING FOR HEAD 
                                                   Max.-Head-Change                         Max.-Flux-Residual
  Residual-Control   Outer-Iter.   Inner-Iter.     Column Row Layer    Maximum-Head-Change  Column Row Layer    Maximum-Flux-Residual          L2-NORM 
          0                 1           2             4    7     1       0.3231733317E-01       4    7    1         0.1696775195E+01      0.4049751157E+01
          0                 2           2             4   13     1      -0.3184825765E-02       4   13    1        -0.1874620211E+00      0.5216919830E+00
          0                 3           2             4   13     1      -0.6388266927E-03       4   13    1        -0.3756344347E-01      0.7389064466E-01
          0                 4           2             4   13     1      -0.2271940614E-03       4   13    1        -0.1336030322E-01      0.2413095327E-01
          0                 5           1             4   13     1      -0.1077666346E-03       4   13    1        -0.6336799992E-02      0.1145255577E-01
          0                 6           1             4   13     1      -0.5426878424E-04       4   13    1        -0.3190947855E-02      0.5769402412E-02

    ------------------------------------------------
       NWT REQUIRED            6 OUTER ITERATIONS 
       AND A TOTAL OF         10 INNER ITERATIONS.
    ------------------------------------------------

 NO OUTPUT CONTROL FOR STRESS PERIOD   22   TIME STEP   17
 
 SOLVING FOR HEAD 
                                                   Max.-Head-Change                         Max.-Flux-Residual
  Residual-Control   Outer-Iter.   Inner-Iter.     Column Row Layer    Maximum-Head-Change  Column Row Layer    Maximum-Flux-Residual          L2-NORM 
          0                 1           2             4    7     1       0.3196961531E-01       4    7    1         0.1679171913E+01      0.3957954270E+01
          0                 2           2             4   13     1      -0.3182568341E-02       4   13    1        -0.1873295699E+00      0.5144803764E+00
          0                 3           2             4   13     1      -0.6408621895E-03       4   13    1        -0.3768310887E-01      0.7384195853E-01
          0                 4           2             4   13     1      -0.2280771638E-03       4   13    1        -0.1341222515E-01      0.2422270280E-01
          0                 5           1             4   13     1      -0.1062347439E-03       4   13    1        -0.6246694194E-02      0.1129203881E-01
          0                 6           1             4   13     1      -0.5367028917E-04       4   13    1        -0.3155771111E-02      0.5703979706E-02

    ------------------------------------------------
       NWT REQUIRED            6 OUTER ITERATIONS 
       AND A TOTAL OF         10 INNER ITERATIONS.
    ------------------------------------------------

 NO OUTPUT CONTROL FOR STRESS PERIOD   22   TIME STEP   18
 
 SOLVING FOR HEAD 
                                                   Max.-Head-Change                         Max.-Flux-Residual
  Residual-Control   Outer-Iter.   Inner-Iter.     Column Row Layer    Maximum-Head-Change  Column Row Layer    Maximum-Flux-Residual          L2-NORM 
          0                 1           2             4    7     1       0.3161432813E-01       4    7    1         0.1661113738E+01      0.3869874455E+01
          0                 2           2             4   13     1      -0.3180530827E-02       4   13    1        -0.1872101465E+00      0.5076270606E+00
          0                 3           2             4   13     1      -0.6428265472E-03       4   13    1        -0.3779857934E-01      0.7380189385E-01
          0                 4           2             4   13     1      -0.2288977272E-03       4   13    1        -0.1346045249E-01      0.2430818508E-01
          0                 5           1             4   13     1      -0.1048090798E-03       4   13    1        -0.6162875617E-02      0.1113940425E-01
          0                 6           1             4   13     1      -0.5307343188E-04       4   13    1        -0.3120678086E-02      0.5640805434E-02

    ------------------------------------------------
       NWT REQUIRED            6 OUTER ITERATIONS 
       AND A TOTAL OF         10 INNER ITERATIONS.
    ------------------------------------------------

 NO OUTPUT CONTROL FOR STRESS PERIOD   22   TIME STEP   19
 
 SOLVING FOR HEAD 
                                                   Max.-Head-Change                         Max.-Flux-Residual
  Residual-Control   Outer-Iter.   Inner-Iter.     Column Row Layer    Maximum-Head-Change  Column Row Layer    Maximum-Flux-Residual          L2-NORM 
          0                 1           2             4    7     1       0.3125217504E-01       4    7    1         0.1642641007E+01      0.3785270230E+01
          0                 2           2             4   13     1      -0.3178721614E-02       4   13    1        -0.1871042040E+00      0.5011087990E+00
          0                 3           2             4   13     1      -0.6446963151E-03       4   13    1        -0.3790849025E-01      0.7376673034E-01
          0                 4           2             4   13     1      -0.2297165098E-03       4   13    1        -0.1350859464E-01      0.2439344852E-01
          0                 5           1             4   13     1      -0.1034188230E-03       4   13    1        -0.6081115260E-02      0.1099196848E-01
          0                 6           1             4   13     1      -0.5249322937E-04       4   13    1        -0.3086558155E-02      0.5579328398E-02

    ------------------------------------------------
       NWT REQUIRED            6 OUTER ITERATIONS 
       AND A TOTAL OF         10 INNER ITERATIONS.
    ------------------------------------------------

 NO OUTPUT CONTROL FOR STRESS PERIOD   22   TIME STEP   20
 
 SOLVING FOR HEAD 
                                                   Max.-Head-Change                         Max.-Flux-Residual
  Residual-Control   Outer-Iter.   Inner-Iter.     Column Row Layer    Maximum-Head-Change  Column Row Layer    Maximum-Flux-Residual          L2-NORM 
          0                 1           2             4    7     1       0.3088461087E-01       4    7    1         0.1623834368E+01      0.3703964277E+01
          0                 2           2             4   13     1      -0.3177074871E-02       4   13    1        -0.1870078493E+00      0.4949055887E+00
          0                 3           2             4   13     1      -0.6464940393E-03       4   13    1        -0.3801416311E-01      0.7373821872E-01
          0                 4           2             4   13     1      -0.2304872975E-03       4   13    1        -0.1355390584E-01      0.2447408442E-01
          0                 5           1             4   13     1      -0.1020922405E-03       4   13    1        -0.6003096203E-02      0.1085173891E-01
          0                 6           1             4   13     1      -0.5196351905E-04       4   13    1        -0.3055421071E-02      0.5521300121E-02

    ------------------------------------------------
       NWT REQUIRED            6 OUTER ITERATIONS 
       AND A TOTAL OF         10 INNER ITERATIONS.
    ------------------------------------------------

 NO OUTPUT CONTROL FOR STRESS PERIOD   22   TIME STEP   21
 
 SOLVING FOR HEAD 
                                                   Max.-Head-Change                         Max.-Flux-Residual
  Residual-Control   Outer-Iter.   Inner-Iter.     Column Row Layer    Maximum-Head-Change  Column Row Layer    Maximum-Flux-Residual          L2-NORM 
          0                 1           2             4    7     1       0.3051232405E-01       4    7    1         0.1604732422E+01      0.3625755253E+01
          0                 2           2             4   13     1      -0.3175604159E-02       4   13    1        -0.1869219026E+00      0.4889976715E+00
          0                 3           2             4   13     1      -0.6482228267E-03       4   13    1        -0.3811577257E-01      0.7371556769E-01
          0                 4           2             4   13     1      -0.2312460917E-03       4   13    1        -0.1359852436E-01      0.2455192361E-01
          0                 5           1             4   13     1      -0.1008205302E-03       4   13    1        -0.5928312901E-02      0.1071679232E-01
          0                 6           1             4   13     1      -0.5141881762E-04       4   13    1        -0.3023387588E-02      0.5464264315E-02

    ------------------------------------------------
       NWT REQUIRED            6 OUTER ITERATIONS 
       AND A TOTAL OF         10 INNER ITERATIONS.
    ------------------------------------------------

 NO OUTPUT CONTROL FOR STRESS PERIOD   22   TIME STEP   22
 
 SOLVING FOR HEAD 
                                                   Max.-Head-Change                         Max.-Flux-Residual
  Residual-Control   Outer-Iter.   Inner-Iter.     Column Row Layer    Maximum-Head-Change  Column Row Layer    Maximum-Flux-Residual          L2-NORM 
          0                 1           2             4    7     1       0.3013620596E-01       4    7    1         0.1585385626E+01      0.3550467780E+01
          0                 2           2             4   13     1      -0.3168496770E-02       4   13    1        -0.1865048045E+00      0.4829481953E+00
          0                 3           2             4   13     1      -0.6542378277E-03       4   13    1        -0.3846950206E-01      0.7412709615E-01
          0                 4           2             4   13     1      -0.2329345734E-03       4   13    1        -0.1369780076E-01      0.2473047134E-01
          0                 5           1             4   13     1      -0.9981753378E-04       4   13    1        -0.5869331548E-02      0.1060996736E-01

    ------------------------------------------------
       NWT REQUIRED            5 OUTER ITERATIONS 
       AND A TOTAL OF          9 INNER ITERATIONS.
    ------------------------------------------------

 NO OUTPUT CONTROL FOR STRESS PERIOD   22   TIME STEP   23
 
 SOLVING FOR HEAD 
                                                   Max.-Head-Change                         Max.-Flux-Residual
  Residual-Control   Outer-Iter.   Inner-Iter.     Column Row Layer    Maximum-Head-Change  Column Row Layer    Maximum-Flux-Residual          L2-NORM 
          0                 1           2             4    7     1       0.2975721875E-01       4    7    1         0.1565847542E+01      0.3477898194E+01
          0                 2           2             4   13     1      -0.3167958078E-02       4   13    1        -0.1864734808E+00      0.4776292630E+00
          0                 3           2             4   13     1      -0.6587633489E-03       4   13    1        -0.3873554613E-01      0.7440707094E-01
          0                 4           2             4   13     1      -0.2353376490E-03       4   13    1        -0.1383906047E-01      0.2498553267E-01
          0                 5           1             4   13     1      -0.9546492234E-04       4   13    1        -0.5613380091E-02      0.1014893572E-01

    ------------------------------------------------
       NWT REQUIRED            5 OUTER ITERATIONS 
       AND A TOTAL OF          9 INNER ITERATIONS.
    ------------------------------------------------

 NO OUTPUT CONTROL FOR STRESS PERIOD   22   TIME STEP   24
 
 SOLVING FOR HEAD 
                                                   Max.-Head-Change                         Max.-Flux-Residual
  Residual-Control   Outer-Iter.   Inner-Iter.     Column Row Layer    Maximum-Head-Change  Column Row Layer    Maximum-Flux-Residual          L2-NORM 
          0                 1           2             4    7     1       0.2937597674E-01       4    7    1         0.1546153325E+01      0.3407935573E+01
          0                 2           2             4   13     1      -0.3167133952E-02       4   13    1        -0.1864250712E+00      0.4725504529E+00
          0                 3           2             4   13     1      -0.6630305159E-03       4   13    1        -0.3898641890E-01      0.7466974809E-01
          0                 4           2             4   13     1      -0.2376218055E-03       4   13    1        -0.1397333285E-01      0.2522699997E-01
          0                 5           1             4   13     1      -0.9138903542E-04       4   13    1        -0.5373697171E-02      0.9716777144E-02

    ------------------------------------------------
       NWT REQUIRED            5 OUTER ITERATIONS 
       AND A TOTAL OF          9 INNER ITERATIONS.
    ------------------------------------------------

 NO OUTPUT CONTROL FOR STRESS PERIOD   22   TIME STEP   25
 
 SOLVING FOR HEAD 
                                                   Max.-Head-Change                         Max.-Flux-Residual
  Residual-Control   Outer-Iter.   Inner-Iter.     Column Row Layer    Maximum-Head-Change  Column Row Layer    Maximum-Flux-Residual          L2-NORM 
          0                 1           2             4    7     1       0.2899332623E-01       4    7    1         0.1526349560E+01      0.3340463975E+01
          0                 2           2             4   13     1      -0.3167226423E-02       4   13    1        -0.1864313574E+00      0.4677115271E+00
          0                 3           2             4   13     1      -0.6669941764E-03       4   13    1        -0.3921938787E-01      0.7491792486E-01
          0                 4           2             4   13     1      -0.2397928321E-03       4   13    1        -0.1410096042E-01      0.2545573429E-01
          0                 5           1             4   13     1      -0.8752932525E-04       4   13    1        -0.5146719999E-02      0.9309081309E-02

    ------------------------------------------------
       NWT REQUIRED            5 OUTER ITERATIONS 
       AND A TOTAL OF          9 INNER ITERATIONS.
    ------------------------------------------------

 NO OUTPUT CONTROL FOR STRESS PERIOD   22   TIME STEP   26
 
 SOLVING FOR HEAD 
                                                   Max.-Head-Change                         Max.-Flux-Residual
  Residual-Control   Outer-Iter.   Inner-Iter.     Column Row Layer    Maximum-Head-Change  Column Row Layer    Maximum-Flux-Residual          L2-NORM 
          0                 1           2             4    7     1       0.2860976234E-01       4    7    1         0.1506465393E+01      0.3275328790E+01
          0                 2           2             4   13     1      -0.3166995125E-02       4   13    1        -0.1864182604E+00      0.4630825879E+00
          0                 3           2             4   13     1      -0.6707242012E-03       4   13    1        -0.3943864809E-01      0.7514872488E-01
          0                 4           2             4   13     1      -0.2418558232E-03       4   13    1        -0.1422225047E-01      0.2567329009E-01
          0                 5           1             4   13     1      -0.8394725975E-04       4   13    1        -0.4936070658E-02      0.8928723886E-02

    ------------------------------------------------
       NWT REQUIRED            5 OUTER ITERATIONS 
       AND A TOTAL OF          9 INNER ITERATIONS.
    ------------------------------------------------

 NO OUTPUT CONTROL FOR STRESS PERIOD   22   TIME STEP   27
 
 SOLVING FOR HEAD 
                                                   Max.-Head-Change                         Max.-Flux-Residual
  Residual-Control   Outer-Iter.   Inner-Iter.     Column Row Layer    Maximum-Head-Change  Column Row Layer    Maximum-Flux-Residual          L2-NORM 
          0                 1           2             4    7     1       0.2822588243E-01       4    7    1         0.1486533862E+01      0.3212419447E+01
          0                 2           2             4   13     1      -0.3166858458E-02       4   13    1        -0.1864108243E+00      0.4586585468E+00
          0                 3           2             4   13     1      -0.6742974846E-03       4   13    1        -0.3964869086E-01      0.7537287981E-01
          0                 4           2             4   13     1      -0.2437710990E-03       4   13    1        -0.1433482409E-01      0.2587643426E-01
          0                 5           1             4   13     1      -0.8056351084E-04       4   13    1        -0.4737104551E-02      0.8573318100E-02

    ------------------------------------------------
       NWT REQUIRED            5 OUTER ITERATIONS 
       AND A TOTAL OF          9 INNER ITERATIONS.
    ------------------------------------------------

 NO OUTPUT CONTROL FOR STRESS PERIOD   22   TIME STEP   28
 
 SOLVING FOR HEAD 
                                                   Max.-Head-Change                         Max.-Flux-Residual
  Residual-Control   Outer-Iter.   Inner-Iter.     Column Row Layer    Maximum-Head-Change  Column Row Layer    Maximum-Flux-Residual          L2-NORM 
          0                 1           2             4    7     1       0.2784223004E-01       4    7    1         0.1466585941E+01      0.3151631849E+01
          0                 2           2             4   13     1      -0.3166688378E-02       4   13    1        -0.1864013800E+00      0.4544254269E+00
          0                 3           2             4   13     1      -0.6776696582E-03       4   13    1        -0.3984693169E-01      0.7558269355E-01
          0                 4           2             4   13     1      -0.2456025824E-03       4   13    1        -0.1444247724E-01      0.2607045289E-01
          0                 5           1             4   13     1      -0.7868638270E-04       4   13    1        -0.4626711224E-02      0.8373982818E-02

    ------------------------------------------------
       NWT REQUIRED            5 OUTER ITERATIONS 
       AND A TOTAL OF          9 INNER ITERATIONS.
    ------------------------------------------------

 NO OUTPUT CONTROL FOR STRESS PERIOD   22   TIME STEP   29
 
 SOLVING FOR HEAD 
                                                   Max.-Head-Change                         Max.-Flux-Residual
  Residual-Control   Outer-Iter.   Inner-Iter.     Column Row Layer    Maximum-Head-Change  Column Row Layer    Maximum-Flux-Residual          L2-NORM 
          0                 1           2             4    7     1       0.2745943006E-01       4    7    1         0.1446657178E+01      0.3091315182E+01
          0                 2           2             4   13     1      -0.3149317990E-02       4   13    1        -0.1853685119E+00      0.4491746616E+00
          0                 3           2             4   13     1      -0.6811512286E-03       4   13    1        -0.4004912203E-01      0.7586440780E-01
          0                 4           2             4   13     1      -0.2470109506E-03       4   13    1        -0.1452437831E-01      0.2623929244E-01
          0                 5           1             4   13     1      -0.7941589485E-04       4   13    1        -0.4669298452E-02      0.8457902010E-02

    ------------------------------------------------
       NWT REQUIRED            5 OUTER ITERATIONS 
       AND A TOTAL OF          9 INNER ITERATIONS.
    ------------------------------------------------

 NO OUTPUT CONTROL FOR STRESS PERIOD   22   TIME STEP   30



 STREAM LISTING     PERIOD     22   STEP       30

 LAYER ROW COL. STREAM  RCH.  FLOW INTO     FLOW TO   FLOW OUT OF   OVRLND.     DIRECT     STREAM       STREAM     STREAM     STREAM   STREAMBED  STREAMBED
                SEG.NO.  NO.  STRM. RCH.    AQUIFER    STRM. RCH.    RUNOFF     PRECIP       ET          HEAD       DEPTH      WIDTH   CONDCTNC.   GRADIENT

   1    1    1     1     1    1.8324E+01  2.0985E-01   1.8114E+01  0.000E+00  0.000E+00  0.000E+00  1.09412E+03  1.071E+00  1.146E+01  5.155E-02  1.357E+00
   1    2    2     1     2    1.8114E+01  3.2368E-01   1.7790E+01  0.000E+00  0.000E+00  0.000E+00  1.08912E+03  1.066E+00  1.137E+01  7.960E-02  1.355E+00
   1    3    3     1     3    1.7790E+01  2.7478E-01   1.7515E+01  0.000E+00  0.000E+00  0.000E+00  1.08348E+03  1.061E+00  1.128E+01  6.766E-02  1.354E+00
   1    3    4     1     4    1.7515E+01  2.5199E-01   1.7263E+01  0.000E+00  0.000E+00  0.000E+00  1.07846E+03  1.056E+00  1.119E+01  6.212E-02  1.352E+00
   1    4    5     2     1    1.5263E+01  3.0363E-01   1.4960E+01  0.000E+00  0.000E+00  0.000E+00  1.07283E+03  8.927E-01  1.200E+01  7.800E-02  1.298E+00
   1    5    6     2     2    1.4960E+01  2.3299E-01   1.4727E+01  0.000E+00  0.000E+00  0.000E+00  1.06739E+03  8.832E-01  1.200E+01  6.000E-02  1.294E+00
   1    6    6     2     3    1.4727E+01  2.3249E-01   1.4494E+01  0.000E+00  0.000E+00  0.000E+00  1.06267E+03  8.749E-01  1.200E+01  6.000E-02  1.292E+00
   1    7    6     2     4    1.4494E+01  2.3199E-01   1.4262E+01  0.000E+00  0.000E+00  0.000E+00  1.05794E+03  8.665E-01  1.200E+01  6.000E-02  1.289E+00
   1    8    6     2     5    1.4262E+01  2.3149E-01   1.4031E+01  0.000E+00  0.000E+00  0.000E+00  1.05322E+03  8.581E-01  1.200E+01  6.000E-02  1.286E+00
   1    3    5     3     1    2.0000E+00  2.8252E-01   1.7175E+00  0.000E+00  0.000E+00  0.000E+00  1.07555E+03  1.909E+00  9.636E+00  7.227E-02  1.955E+00
   1    3    6     3     2    1.7175E+00  2.4905E-01   1.4684E+00  0.000E+00  0.000E+00  0.000E+00  1.07264E+03  1.727E+00  8.909E+00  6.682E-02  1.864E+00
   1    3    7     3     3    1.4684E+00  1.9718E-01   1.2712E+00  0.000E+00  0.000E+00  0.000E+00  1.06987E+03  1.555E+00  8.218E+00  5.547E-02  1.777E+00
   1    4    8     3     4    1.2712E+00  2.2567E-01   1.0456E+00  0.000E+00  0.000E+00  0.000E+00  1.06682E+03  1.364E+00  7.455E+00  6.709E-02  1.682E+00
   1    5    8     3     5    1.0456E+00  1.5790E-01   8.8768E-01  0.000E+00  0.000E+00  0.000E+00  1.06362E+03  1.164E+00  6.655E+00  4.991E-02  1.582E+00
   1    6    8     3     6    8.8768E-01  5.5980E-02   8.3170E-01  0.000E+00  0.000E+00  0.000E+00  1.06158E+03  1.036E+00  6.145E+00  1.844E-02  1.518E+00
   1    5   10     4     1    1.0000E+01  9.0919E-02   9.9091E+00  0.000E+00  0.000E+00  0.000E+00  1.07836E+03  6.368E-01  1.000E+01  2.500E-02  1.212E+00
   1    5    9     4     2    9.9091E+00  1.8158E-01   9.7275E+00  0.000E+00  0.000E+00  0.000E+00  1.07154E+03  6.315E-01  1.000E+01  5.000E-02  1.211E+00
   1    6    8     4     3    9.7275E+00  1.2689E-01   9.6006E+00  0.000E+00  0.000E+00  0.000E+00  1.06381E+03  6.256E-01  1.000E+01  3.500E-02  1.209E+00
   1    6    8     5     1    1.0432E+01  2.2686E-01   1.0205E+01  0.000E+00  0.000E+00  0.000E+00  1.05868E+03  6.790E-01  1.542E+01  6.166E-02  1.226E+00
   1    7    7     5     2    1.0205E+01  2.7894E-01   9.9265E+00  0.000E+00  0.000E+00  0.000E+00  1.05417E+03  6.732E-01  1.519E+01  7.594E-02  1.224E+00
   1    8    7     5     3    9.9265E+00  1.9221E-01   9.7343E+00  0.000E+00  0.000E+00  0.000E+00  1.04992E+03  6.676E-01  1.497E+01  5.241E-02  1.223E+00
   1    8    6     5     4    9.7343E+00  1.3577E-01   9.5985E+00  0.000E+00  0.000E+00  0.000E+00  1.04691E+03  6.637E-01  1.482E+01  3.706E-02  1.221E+00
   1    9    6     6     1    1.2671E+01  2.2874E-01   1.2442E+01  0.000E+00  0.000E+00  0.000E+00  1.04354E+03  8.123E-01  1.200E+01  6.000E-02  1.271E+00
   1   10    7     6     2    1.2442E+01  2.2821E-01   1.2214E+01  0.000E+00  0.000E+00  0.000E+00  1.03899E+03  8.035E-01  1.200E+01  6.000E-02  1.268E+00
   1   11    7     6     3    1.2214E+01  2.2768E-01   1.1987E+01  0.000E+00  0.000E+00  0.000E+00  1.03443E+03  7.946E-01  1.200E+01  6.000E-02  1.265E+00
   1   12    7     6     4    1.1987E+01  2.2714E-01   1.1759E+01  0.000E+00  0.000E+00  0.000E+00  1.02988E+03  7.857E-01  1.200E+01  6.000E-02  1.262E+00
   1   13    7     6     5    1.1759E+01 -9.1737E-02   1.1851E+01  0.000E+00  0.000E+00  0.000E+00  1.02669E+03  7.830E-01  1.200E+01  2.400E-01 -1.274E-01
   1   14    9     7     1    1.5000E+02  1.3361E+00   1.4866E+02  0.000E+00  0.000E+00  0.000E+00  1.03987E+03  2.288E+00  5.529E+01  5.593E-01  7.963E-01
   1   13    8     7     2    1.4866E+02  1.8287E+00   1.4684E+02  0.000E+00  0.000E+00  0.000E+00  1.03478E+03  2.279E+00  5.526E+01  6.148E-01  9.915E-01
   1   13    7     7     3    1.4684E+02  1.4606E+00   1.4537E+02  0.000E+00  0.000E+00  0.000E+00  1.02969E+03  2.271E+00  5.522E+01  5.585E-01  8.718E-01
   1   13    6     8     1    1.5723E+02  8.3413E-01   1.5639E+02  0.000E+00  0.000E+00  0.000E+00  1.02474E+03  2.865E+00  4.154E+01  4.233E-01  6.568E-01
   1   13    5     8     2    1.5639E+02  1.0469E-01   1.5629E+02  0.000E+00  0.000E+00  0.000E+00  1.01849E+03  2.862E+00  4.149E+01  4.228E-01  8.253E-02
   1   13    4     8     3    1.5629E+02 -2.6619E+00   1.5895E+02  0.000E+00  0.000E+00  0.000E+00  1.01225E+03  2.870E+00  4.162E+01  4.241E+00 -2.092E-01
   1   13    3     8     4    1.5895E+02 -3.7481E+00   1.6270E+02  0.000E+00  0.000E+00  0.000E+00  1.00602E+03  2.892E+00  4.194E+01  4.274E+00 -2.924E-01
   1   13    2     8     5    1.6270E+02 -2.6023E+00   1.6530E+02  0.000E+00  0.000E+00  0.000E+00  9.99788E+02  2.913E+00  4.225E+01  4.305E+00 -2.015E-01
   1   13    1     8     6    1.6530E+02 -1.9818E+00   1.6728E+02  0.000E+00  0.000E+00  0.000E+00  9.94804E+02  2.929E+00  4.247E+01  2.596E+00 -2.544E-01
   1    8    6     9     1    1.0958E+01  0.0000E+00   1.0958E+01  0.000E+00  0.000E+00  0.000E+00  1.08113E+03  2.379E+00  4.000E+00  0.000E+00  1.793E+00
   1    8    5     9     2    1.0958E+01  0.0000E+00   1.0958E+01  0.000E+00  0.000E+00  0.000E+00  1.08063E+03  2.379E+00  4.000E+00  0.000E+00  1.793E+00





UNSATURATED ZONE PACKAGE VOLUMETRIC BUDGET FOR  TIME STEP    30 STRESS PERIOD   22
  ------------------------------------------------------------------------------



     CUMULATIVE VOLUMES      L**3       RATES FOR THIS TIME STEP      L**3/T
     ------------------                 ------------------------

           IN:                                      IN:
           ---                                      ---
        INFILTRATION =  1042274420.0872          INFILTRATION =          15.3657

          OUT:                                     OUT:
          ----                                     ----
              UZF ET =   983668014.6090                UZF ET =          15.2992
        UZF RECHARGE =      654716.9165          UZF RECHARGE =       0.0000E+00

            IN - OUT =    57951688.5616              IN - OUT =       6.6483E-02

          STORAGE:                                 STORAGE:
          --------                                 --------
      STORAGE CHANGE =    57952279.1414        STORAGE CHANGE =       6.6483E-02

 PERCENT DISCREPANCY IS DIFFERENCE BETWEEN IN-OUT MINUS CHANGE IN STORAGE
 DIVIDED BY THE AVERAGE OF IN AND OUT TIMES 100

 PERCENT DISCREPANCY =          -0.00     PERCENT DISCREPANCY =           0.00






1
  VOLUMETRIC BUDGET FOR AGRICULTURAL FIELDS AT TIME STEP   30, STRESS PERIOD  22
  ------------------------------------------------------------------------------

     CUMULATIVE VOLUMES      L**3       RATES FOR THIS TIME STEP      L**3/T
     ------------------                 ------------------------

           IN:                                      IN:
           ---                                      ---
               AG WELLS  =   175546176.0000                 AG WELLS  =           0.0000
      DIVERSION SEGMENTS =   623216576.0000        DIVERSION SEGMENTS =          10.9579
           GW IRRIGATION =           0.0000             GW IRRIGATION =           0.0000
           SW IRRIGATION =           0.0000             SW IRRIGATION =           0.0000
        SYSTEM LOSSES GW =           0.0000          SYSTEM LOSSES GW =           0.0000
        SYSTEM LOSSES SW =           0.0000          SYSTEM LOSSES SW =           0.0000

                TOTAL IN =   798762752.0000                  TOTAL IN =          10.9579

          OUT:                                     OUT:
          ----                                     ----
               AG WELLS  =           0.0000                 AG WELLS  =           0.0000
      DIVERSION SEGMENTS =           0.0000        DIVERSION SEGMENTS =           0.0000
           GW IRRIGATION =   175546176.0000             GW IRRIGATION =           0.0000
           SW IRRIGATION =   623229888.0000             SW IRRIGATION =          10.9582
        SYSTEM LOSSES GW =           0.0000          SYSTEM LOSSES GW =           0.0000
        SYSTEM LOSSES SW =           0.0000          SYSTEM LOSSES SW =           0.0000

               TOTAL OUT =   798776064.0000                 TOTAL OUT =          10.9582

                IN - OUT =      -13312.0000                  IN - OUT =      -2.1935E-04

     PERCENT DISCREPANCY =          -0.00         PERCENT DISCREPANCY =          -0.00



1
  VOLUMETRIC BUDGET FOR ENTIRE MODEL AT END OF TIME STEP   30, STRESS PERIOD  22
  ------------------------------------------------------------------------------

     CUMULATIVE VOLUMES      L**3       RATES FOR THIS TIME STEP      L**3/T
     ------------------                 ------------------------

           IN:                                      IN:
           ---                                      ---
             STORAGE     =   252358144.0000               STORAGE     =           6.9484
       CONSTANT HEAD     =           0.0000         CONSTANT HEAD     =           0.0000
     HEAD DEP BOUNDS     =    15806844.0000       HEAD DEP BOUNDS     =           0.2858
      STREAM LEAKAGE     =   660385088.0000        STREAM LEAKAGE     =          11.1704
        UZF RECHARGE     =      654716.8125          UZF RECHARGE     =           0.0000
               GW ET     =           0.0000                 GW ET     =           0.0000
     SURFACE LEAKAGE     =           0.0000       SURFACE LEAKAGE     =           0.0000
           AG WELLS      =           0.0000             AG WELLS      =           0.0000

                TOTAL IN =   929204800.0000                  TOTAL IN =          18.4046

          OUT:                                     OUT:
          ----                                     ----
             STORAGE     =   132538432.0000               STORAGE     =           7.0298
       CONSTANT HEAD     =           0.0000         CONSTANT HEAD     =           0.0000
     HEAD DEP BOUNDS     =    16087146.0000       HEAD DEP BOUNDS     =           0.2875
      STREAM LEAKAGE     =   602738112.0000        STREAM LEAKAGE     =          11.0858
        UZF RECHARGE     =           0.0000          UZF RECHARGE     =           0.0000
               GW ET     =     2260364.5000                 GW ET     =           0.0000
     SURFACE LEAKAGE     =           0.0000       SURFACE LEAKAGE     =           0.0000
           AG WELLS      =   175546176.0000             AG WELLS      =           0.0000

               TOTAL OUT =   929170240.0000                 TOTAL OUT =          18.4031

                IN - OUT =       34560.0000                  IN - OUT =       1.5202E-03

     PERCENT DISCREPANCY =           0.00         PERCENT DISCREPANCY =           0.01






         TIME SUMMARY AT END OF TIME STEP   30 IN STRESS PERIOD   22
                    SECONDS     MINUTES      HOURS       DAYS        YEARS
                    -----------------------------------------------------------
   TIME STEP LENGTH  87667.      1461.1      24.352      1.0147     2.77799E-03
 STRESS PERIOD TIME 2.63000E+06  43833.      730.56      30.440     8.33397E-02
         TOTAL TIME 5.53166E+07 9.21944E+05  15366.      640.24      1.7529    
1
1
                            STRESS PERIOD NO.   23, LENGTH =   2630000.    
                            -----------------------------------------------

                              NUMBER OF TIME STEPS =    30

                               MULTIPLIER FOR DELT =     1.000

                            INITIAL TIME STEP SIZE =   87666.66    

 REUSING NON-PARAMETER GHB CELLS FROM LAST STRESS PERIOD

      2 GHB CELLS

 REUSING STREAM SEGMENT DATA FROM LAST STRESS PERIOD



            AREAL INFILTRATION RATE
 READING ON UNIT   19 WITH FORMAT: (10F4.0)            

            1           2           3           4           5           6           7           8           9          10
 ........................................................................................................................
   1   1.2000E-09   0.000       0.000       0.000       0.000       0.000       0.000       0.000       0.000       0.000    
   2   2.1000E-09  2.0000E-09  8.0000E-10  8.5000E-09   0.000       0.000       0.000       0.000       0.000       0.000    
   3   5.0000E-10  1.1000E-09  8.8000E-09  5.5000E-09   0.000       0.000       0.000       0.000       0.000       0.000    
   4   8.5000E-09  1.1000E-09  1.1000E-09  1.1000E-09  2.0000E-09   0.000       0.000       0.000       0.000       0.000    
   5   8.5000E-09  1.1000E-09  1.1000E-09  1.1000E-09  1.1000E-09   0.000       0.000       0.000       0.000       0.000    
   6   8.5000E-09  5.2000E-09  2.1000E-09  1.1000E-09  1.5000E-09   0.000       0.000       0.000       0.000       0.000    
   7   8.5000E-09  5.2000E-09  2.1000E-09  1.2000E-09  2.0000E-09   0.000       0.000       0.000       0.000       0.000    
   8   5.0000E-10  5.2000E-09  2.1000E-09  1.2000E-09  5.0000E-09   0.000       0.000       0.000       0.000       0.000    
   9   5.0000E-10  5.2000E-09  2.1000E-09  1.2000E-09  5.0000E-09   0.000       0.000       0.000       0.000       0.000    
  10   5.0000E-10  5.2000E-09  2.1000E-09  1.2000E-09  5.8000E-09   0.000       0.000       0.000       0.000       0.000    
  11   1.0000E-10  1.1000E-09  1.1000E-09  1.2000E-09  5.0000E-09   0.000       0.000       0.000       0.000       0.000    
  12   1.1000E-09  1.1000E-09  1.1000E-09  1.1000E-09  2.0000E-09   0.000       0.000       0.000       0.000       0.000    
  13   1.1000E-09  2.2000E-09  2.2000E-09  2.1000E-09  1.0000E-09   0.000       0.000       0.000       0.000       0.000    
  14   2.0000E-10  5.5000E-09  5.5000E-09  5.2000E-09  1.0000E-09   0.000       0.000       0.000       0.000       0.000    
  15    0.000      8.8000E-09  8.8000E-09   0.000       0.000       0.000       0.000       0.000       0.000       0.000    

                  ET RATE =  5.000000E-09

 USING ET EXTINCTION DEPTH FROM PREVIOUS STRESS PERIOD. CURRENT PERIOD IS:      23

 USING EXTINCTION WATER CONTENT FROM PREVIOUS STRESS PERIOD. CURRENT PERIOD IS:      23

 USING AIR ENTRY PRESSURE FROM PREVIOUS STRESS PERIOD. CURRENT PERIOD IS:      23

 USING ROOT PRESSURE HEAD FROM PREVIOUS STRESS PERIOD. CURRENT PERIOD IS:      23

 USING ROOT ACTIVITY FROM PREVIOUS STRESS PERIOD. CURRENT PERIOD IS:      23

 PROCESSING AG STRESS PERIOD DATA

 READING AG STRESS PERIOD DATA

 READING IRRIGATION SEGMENT

 READING IRRIGATION WELL

 READING SUPPLEMENTAL WELL

 END PROCESSING AG STRESS PERIOD DATA OPTIONS
 
 SOLVING FOR HEAD 
                                                   Max.-Head-Change                         Max.-Flux-Residual
  Residual-Control   Outer-Iter.   Inner-Iter.     Column Row Layer    Maximum-Head-Change  Column Row Layer    Maximum-Flux-Residual          L2-NORM 
          0                 1           2             4    7     1       0.2707777953E-01       4    7    1         0.1426765238E+01      0.3029123436E+01
          0                 2           2             4    7     1      -0.2633941085E-02       4    7    1        -0.1426772975E+00      0.3028090878E+00
          0                 3           2             4    7     1       0.1793615109E-03       4    7    1         0.9987407814E-02      0.2118714618E-01
          0                 4           1             4    7     1      -0.7136963147E-05       4    7    1        -0.4084855943E-03      0.8658627404E-03

    ------------------------------------------------
       NWT REQUIRED            4 OUTER ITERATIONS 
       AND A TOTAL OF          7 INNER ITERATIONS.
    ------------------------------------------------

 NO OUTPUT CONTROL FOR STRESS PERIOD   23   TIME STEP    1
 
 SOLVING FOR HEAD 
                                                   Max.-Head-Change                         Max.-Flux-Residual
  Residual-Control   Outer-Iter.   Inner-Iter.     Column Row Layer    Maximum-Head-Change  Column Row Layer    Maximum-Flux-Residual          L2-NORM 
          0                 1           2             4    7     1       0.2669770056E-01       4    7    1         0.1406932978E+01      0.2970945906E+01
          0                 2           2             4    7     1      -0.2596969697E-02       4    7    1        -0.1406940673E+00      0.2970054052E+00
          0                 3           2             4    7     1       0.1768438969E-03       4    7    1         0.9848581692E-02      0.2078217017E-01
          0                 4           1             4    7     1      -0.7036784635E-05       4    7    1        -0.4028075871E-03      0.8495260056E-03

    ------------------------------------------------
       NWT REQUIRED            4 OUTER ITERATIONS 
       AND A TOTAL OF          7 INNER ITERATIONS.
    ------------------------------------------------

 NO OUTPUT CONTROL FOR STRESS PERIOD   23   TIME STEP    2
 
 SOLVING FOR HEAD 
                                                   Max.-Head-Change                         Max.-Flux-Residual
  Residual-Control   Outer-Iter.   Inner-Iter.     Column Row Layer    Maximum-Head-Change  Column Row Layer    Maximum-Flux-Residual          L2-NORM 
          0                 1           2             4    7     1       0.2631969765E-01       4    7    1         0.1387189477E+01      0.2914845553E+01
          0                 2           2             4    7     1      -0.2560200233E-02       4    7    1        -0.1387197116E+00      0.2914070216E+00
          0                 3           2             4    7     1       0.1743400337E-03       4    7    1         0.9710376778E-02      0.2039141714E-01
          0                 4           1             4    7     1      -0.6937153670E-05       4    7    1        -0.3971550036E-03      0.8335676845E-03

    ------------------------------------------------
       NWT REQUIRED            4 OUTER ITERATIONS 
       AND A TOTAL OF          7 INNER ITERATIONS.
    ------------------------------------------------

 NO OUTPUT CONTROL FOR STRESS PERIOD   23   TIME STEP    3
 
 SOLVING FOR HEAD 
                                                   Max.-Head-Change                         Max.-Flux-Residual
  Residual-Control   Outer-Iter.   Inner-Iter.     Column Row Layer    Maximum-Head-Change  Column Row Layer    Maximum-Flux-Residual          L2-NORM 
          0                 1           2             4    7     1       0.2594397292E-01       4    7    1         0.1367546243E+01      0.2860683314E+01
          0                 2           2             4    7     1      -0.2523652355E-02       4    7    1        -0.1367553814E+00      0.2860012015E+00
          0                 3           2             4    7     1       0.1718512595E-03       4    7    1         0.9572873674E-02      0.2001387749E-01
          0                 4           1             4    7     1      -0.6838122520E-05       4    7    1        -0.3915310970E-03      0.8181894512E-03

    ------------------------------------------------
       NWT REQUIRED            4 OUTER ITERATIONS 
       AND A TOTAL OF          7 INNER ITERATIONS.
    ------------------------------------------------

 NO OUTPUT CONTROL FOR STRESS PERIOD   23   TIME STEP    4
 
 SOLVING FOR HEAD 
                                                   Max.-Head-Change                         Max.-Flux-Residual
  Residual-Control   Outer-Iter.   Inner-Iter.     Column Row Layer    Maximum-Head-Change  Column Row Layer    Maximum-Flux-Residual          L2-NORM 
          0                 1           2             4    7     1       0.2557083880E-01       4    7    1         0.1348021125E+01      0.2808351841E+01
          0                 2           2             4    7     1      -0.2487356455E-02       4    7    1        -0.1348028615E+00      0.2807769362E+00
          0                 3           2             4    7     1       0.1693796445E-03       4    7    1         0.9436197286E-02      0.1964890815E-01
          0                 4           1             4    7     1      -0.6739774883E-05       4    7    1        -0.3859410422E-03      0.8032199177E-03

    ------------------------------------------------
       NWT REQUIRED            4 OUTER ITERATIONS 
       AND A TOTAL OF          7 INNER ITERATIONS.
    ------------------------------------------------

 NO OUTPUT CONTROL FOR STRESS PERIOD   23   TIME STEP    5
 
 SOLVING FOR HEAD 
                                                   Max.-Head-Change                         Max.-Flux-Residual
  Residual-Control   Outer-Iter.   Inner-Iter.     Column Row Layer    Maximum-Head-Change  Column Row Layer    Maximum-Flux-Residual          L2-NORM 
          0                 1           2             4    7     1       0.2520070852E-01       4    7    1         0.1328637693E+01      0.2757738819E+01
          0                 2           2             4    7     1      -0.2451352732E-02       4    7    1        -0.1328645091E+00      0.2757234994E+00
          0                 3           2             4    7     1       0.1669279262E-03       4    7    1         0.9300512666E-02      0.1929599992E-01
          0                 4           1             4    7     1      -0.6642218978E-05       4    7    1        -0.3803915388E-03      0.7889745190E-03

    ------------------------------------------------
       NWT REQUIRED            4 OUTER ITERATIONS 
       AND A TOTAL OF          7 INNER ITERATIONS.
    ------------------------------------------------

 NO OUTPUT CONTROL FOR STRESS PERIOD   23   TIME STEP    6
 
 SOLVING FOR HEAD 
                                                   Max.-Head-Change                         Max.-Flux-Residual
  Residual-Control   Outer-Iter.   Inner-Iter.     Column Row Layer    Maximum-Head-Change  Column Row Layer    Maximum-Flux-Residual          L2-NORM 
          0                 1           2             4    7     1       0.2483382308E-01       4    7    1         0.1309410001E+01      0.2708744489E+01
          0                 2           2             4    7     1      -0.2415664632E-02       4    7    1        -0.1309417301E+00      0.2708312917E+00
          0                 3           2             4    7     1       0.1644977001E-03       4    7    1         0.9165918159E-02      0.1895415779E-01
          0                 4           1             4    7     1      -0.6545517780E-05       4    7    1        -0.3748866086E-03      0.7749310619E-03

    ------------------------------------------------
       NWT REQUIRED            4 OUTER ITERATIONS 
       AND A TOTAL OF          7 INNER ITERATIONS.
    ------------------------------------------------

 NO OUTPUT CONTROL FOR STRESS PERIOD   23   TIME STEP    7
 
 SOLVING FOR HEAD 
                                                   Max.-Head-Change                         Max.-Flux-Residual
  Residual-Control   Outer-Iter.   Inner-Iter.     Column Row Layer    Maximum-Head-Change  Column Row Layer    Maximum-Flux-Residual          L2-NORM 
          0                 1           2             4    7     1       0.2447026501E-01       4    7    1         0.1290343176E+01      0.2661272184E+01
          0                 2           2             4    7     1      -0.2380300183E-02       4    7    1        -0.1290350368E+00      0.2660892702E+00
          0                 3           2             4    7     1       0.1620895142E-03       4    7    1         0.9032449689E-02      0.1862272692E-01
          0                 4           1             4    7     1      -0.6449693970E-05       4    7    1        -0.3694277498E-03      0.7613688837E-03

    ------------------------------------------------
       NWT REQUIRED            4 OUTER ITERATIONS 
       AND A TOTAL OF          7 INNER ITERATIONS.
    ------------------------------------------------

 NO OUTPUT CONTROL FOR STRESS PERIOD   23   TIME STEP    8
 
 SOLVING FOR HEAD 
                                                   Max.-Head-Change                         Max.-Flux-Residual
  Residual-Control   Outer-Iter.   Inner-Iter.     Column Row Layer    Maximum-Head-Change  Column Row Layer    Maximum-Flux-Residual          L2-NORM 
          0                 1           2             4    7     1       0.2411023894E-01       4    7    1         0.1271448866E+01      0.2615254407E+01
          0                 2           2             4    7     1      -0.2345279292E-02       4    7    1        -0.1271455945E+00      0.2614918438E+00
          0                 3           2             4    7     1       0.1597047228E-03       4    7    1         0.8900188773E-02      0.1830055883E-01
          0                 4           1             4    7     1      -0.6354800736E-05       4    7    1        -0.3640182601E-03      0.7482199479E-03

    ------------------------------------------------
       NWT REQUIRED            4 OUTER ITERATIONS 
       AND A TOTAL OF          7 INNER ITERATIONS.
    ------------------------------------------------

 NO OUTPUT CONTROL FOR STRESS PERIOD   23   TIME STEP    9
 
 SOLVING FOR HEAD 
                                                   Max.-Head-Change                         Max.-Flux-Residual
  Residual-Control   Outer-Iter.   Inner-Iter.     Column Row Layer    Maximum-Head-Change  Column Row Layer    Maximum-Flux-Residual          L2-NORM 
          0                 1           2             4    7     1       0.2375405546E-01       4    7    1         0.1252745054E+01      0.2570614235E+01
          0                 2           2             4    7     1      -0.2310632173E-02       4    7    1        -0.1252752014E+00      0.2570329409E+00
          0                 3           2             4    7     1       0.1573453840E-03       4    7    1         0.8769261312E-02      0.1798960784E-01
          0                 4           1             4    7     1      -0.6260920510E-05       4    7    1        -0.3586633079E-03      0.7356310677E-03

    ------------------------------------------------
       NWT REQUIRED            4 OUTER ITERATIONS 
       AND A TOTAL OF          7 INNER ITERATIONS.
    ------------------------------------------------

 NO OUTPUT CONTROL FOR STRESS PERIOD   23   TIME STEP   10
 
 SOLVING FOR HEAD 
                                                   Max.-Head-Change                         Max.-Flux-Residual
  Residual-Control   Outer-Iter.   Inner-Iter.     Column Row Layer    Maximum-Head-Change  Column Row Layer    Maximum-Flux-Residual          L2-NORM 
          0                 1           2             4    7     1       0.2340186483E-01       4    7    1         0.1234240472E+01      0.2527278343E+01
          0                 2           2             4    7     1      -0.2276373444E-02       4    7    1        -0.1234247310E+00      0.2527031653E+00
          0                 3           2             4    7     1       0.1550124936E-03       4    7    1         0.8639728427E-02      0.1768688393E-01
          0                 4           1             4    7     1      -0.6168092665E-05       4    7    1        -0.3533654253E-03      0.7232361699E-03

    ------------------------------------------------
       NWT REQUIRED            4 OUTER ITERATIONS 
       AND A TOTAL OF          7 INNER ITERATIONS.
    ------------------------------------------------

 NO OUTPUT CONTROL FOR STRESS PERIOD   23   TIME STEP   11
 
 SOLVING FOR HEAD 
                                                   Max.-Head-Change                         Max.-Flux-Residual
  Residual-Control   Outer-Iter.   Inner-Iter.     Column Row Layer    Maximum-Head-Change  Column Row Layer    Maximum-Flux-Residual          L2-NORM 
          0                 1           2             4    7     1       0.2305379994E-01       4    7    1         0.1215942911E+01      0.2485179301E+01
          0                 2           2             4    7     1      -0.2242516031E-02       4    7    1        -0.1215949622E+00      0.2484965472E+00
          0                 3           2             4    7     1       0.1527069308E-03       4    7    1         0.8511644676E-02      0.1739276598E-01
          0                 4           1             4    7     1      -0.6076351971E-05       4    7    1        -0.3481267797E-03      0.7113213000E-03

    ------------------------------------------------
       NWT REQUIRED            4 OUTER ITERATIONS 
       AND A TOTAL OF          7 INNER ITERATIONS.
    ------------------------------------------------

 NO OUTPUT CONTROL FOR STRESS PERIOD   23   TIME STEP   12
 
 SOLVING FOR HEAD 
                                                   Max.-Head-Change                         Max.-Flux-Residual
  Residual-Control   Outer-Iter.   Inner-Iter.     Column Row Layer    Maximum-Head-Change  Column Row Layer    Maximum-Flux-Residual          L2-NORM 
          0                 1           2             4    7     1       0.2270983683E-01       4    7    1         0.1197851888E+01      0.2444270638E+01
          0                 2           2             4    7     1      -0.2209057606E-02       4    7    1        -0.1197858470E+00      0.2444086029E+00
          0                 3           2             4    7     1       0.1504285382E-03       4    7    1         0.8385006687E-02      0.1710686231E-01
          0                 4           1             4    7     1      -0.5985692785E-05       4    7    1        -0.3429472804E-03      0.6995854391E-03

    ------------------------------------------------
       NWT REQUIRED            4 OUTER ITERATIONS 
       AND A TOTAL OF          7 INNER ITERATIONS.
    ------------------------------------------------

 NO OUTPUT CONTROL FOR STRESS PERIOD   23   TIME STEP   13
 
 SOLVING FOR HEAD 
                                                   Max.-Head-Change                         Max.-Flux-Residual
  Residual-Control   Outer-Iter.   Inner-Iter.     Column Row Layer    Maximum-Head-Change  Column Row Layer    Maximum-Flux-Residual          L2-NORM 
          0                 1           2             4    7     1       0.2237021281E-01       4    7    1         0.1179980908E+01      0.2404479602E+01
          0                 2           2             4    7     1      -0.2176021253E-02       4    7    1        -0.1179987357E+00      0.2404319702E+00
          0                 3           2             4    7     1       0.1481788870E-03       4    7    1         0.8259908963E-02      0.1682871995E-01
          0                 4           1             4    7     1      -0.5896177276E-05       4    7    1        -0.3378307858E-03      0.6882124810E-03

    ------------------------------------------------
       NWT REQUIRED            4 OUTER ITERATIONS 
       AND A TOTAL OF          7 INNER ITERATIONS.
    ------------------------------------------------

 NO OUTPUT CONTROL FOR STRESS PERIOD   23   TIME STEP   14
 
 SOLVING FOR HEAD 
                                                   Max.-Head-Change                         Max.-Flux-Residual
  Residual-Control   Outer-Iter.   Inner-Iter.     Column Row Layer    Maximum-Head-Change  Column Row Layer    Maximum-Flux-Residual          L2-NORM 
          0                 1           2             4    7     1       0.2203501001E-01       4    7    1         0.1162334900E+01      0.2365777502E+01
          0                 2           2             4    7     1      -0.2143414963E-02       4    7    1        -0.1162341217E+00      0.2365639917E+00
          0                 3           2             4    7     1       0.1459585215E-03       4    7    1         0.8136386065E-02      0.1655822617E-01
          0                 4           1             4    7     1      -0.5807826398E-05       4    7    1        -0.3327786781E-03      0.6772171731E-03

    ------------------------------------------------
       NWT REQUIRED            4 OUTER ITERATIONS 
       AND A TOTAL OF          7 INNER ITERATIONS.
    ------------------------------------------------

 NO OUTPUT CONTROL FOR STRESS PERIOD   23   TIME STEP   15
 
 SOLVING FOR HEAD 
                                                   Max.-Head-Change                         Max.-Flux-Residual
  Residual-Control   Outer-Iter.   Inner-Iter.     Column Row Layer    Maximum-Head-Change  Column Row Layer    Maximum-Flux-Residual          L2-NORM 
          0                 1           2             4    7     1       0.2170442235E-01       4    7    1         0.1144925500E+01      0.2328098579E+01
          0                 2           2             4    7     1      -0.2111257598E-02       4    7    1        -0.1144931683E+00      0.2327979430E+00
          0                 3           2             4    7     1       0.1437687260E-03       4    7    1         0.8014519385E-02      0.1629475688E-01
          0                 4           1             4    7     1      -0.5720692419E-05       4    7    1        -0.3277943299E-03      0.6663809529E-03

    ------------------------------------------------
       NWT REQUIRED            4 OUTER ITERATIONS 
       AND A TOTAL OF          7 INNER ITERATIONS.
    ------------------------------------------------

 NO OUTPUT CONTROL FOR STRESS PERIOD   23   TIME STEP   16
 
 SOLVING FOR HEAD 
                                                   Max.-Head-Change                         Max.-Flux-Residual
  Residual-Control   Outer-Iter.   Inner-Iter.     Column Row Layer    Maximum-Head-Change  Column Row Layer    Maximum-Flux-Residual          L2-NORM 
          0                 1           2             4    7     1       0.2137823578E-01       4    7    1         0.1127740637E+01      0.2291411608E+01
          0                 2           2             4    7     1      -0.2079528338E-02       4    7    1        -0.1127746685E+00      0.2291308638E+00
          0                 3           2             4    7     1       0.1416080827E-03       4    7    1         0.7894224472E-02      0.1603817400E-01
          0                 4           1             4    7     1      -0.5634718236E-05       4    7    1        -0.3228742480E-03      0.6559198794E-03

    ------------------------------------------------
       NWT REQUIRED            4 OUTER ITERATIONS 
       AND A TOTAL OF          7 INNER ITERATIONS.
    ------------------------------------------------

 NO OUTPUT CONTROL FOR STRESS PERIOD   23   TIME STEP   17
 
 SOLVING FOR HEAD 
                                                   Max.-Head-Change                         Max.-Flux-Residual
  Residual-Control   Outer-Iter.   Inner-Iter.     Column Row Layer    Maximum-Head-Change  Column Row Layer    Maximum-Flux-Residual          L2-NORM 
          0                 1           2             4    7     1       0.2105663082E-01       4    7    1         0.1110791336E+01      0.2255666453E+01
          0                 2           2             4    7     1      -0.2048244745E-02       4    7    1        -0.1110797250E+00      0.2255577177E+00
          0                 3           2             4    7     1       0.1394777880E-03       4    7    1         0.7775578501E-02      0.1578769620E-01
          0                 4           1             4    7     1      -0.5549952086E-05       4    7    1        -0.3180216227E-03      0.6456555926E-03

    ------------------------------------------------
       NWT REQUIRED            4 OUTER ITERATIONS 
       AND A TOTAL OF          7 INNER ITERATIONS.
    ------------------------------------------------

 NO OUTPUT CONTROL FOR STRESS PERIOD   23   TIME STEP   18
 
 SOLVING FOR HEAD 
                                                   Max.-Head-Change                         Max.-Flux-Residual
  Residual-Control   Outer-Iter.   Inner-Iter.     Column Row Layer    Maximum-Head-Change  Column Row Layer    Maximum-Flux-Residual          L2-NORM 
          0                 1           2             4    7     1       0.2073977272E-01       4    7    1         0.1094086960E+01      0.2220842724E+01
          0                 2           2             4    7     1      -0.2017423021E-02       4    7    1        -0.1094092739E+00      0.2220820808E+00
          0                 3           2             4    7     1       0.1373789451E-03       4    7    1         0.7658647018E-02      0.1554501278E-01
          0                 4           1             4    7     1      -0.5466437028E-05       4    7    1        -0.3132391189E-03      0.6357466594E-03

    ------------------------------------------------
       NWT REQUIRED            4 OUTER ITERATIONS 
       AND A TOTAL OF          7 INNER ITERATIONS.
    ------------------------------------------------

 NO OUTPUT CONTROL FOR STRESS PERIOD   23   TIME STEP   19
 
 SOLVING FOR HEAD 
                                                   Max.-Head-Change                         Max.-Flux-Residual
  Residual-Control   Outer-Iter.   Inner-Iter.     Column Row Layer    Maximum-Head-Change  Column Row Layer    Maximum-Flux-Residual          L2-NORM 
          0                 1           2             4    7     1       0.2042753811E-01       4    7    1         0.1077621317E+01      0.2186875842E+01
          0                 2           2             4    7     1      -0.1987050780E-02       4    7    1        -0.1077626963E+00      0.2186809757E+00
          0                 3           2             4    7     1       0.1353107100E-03       4    7    1         0.7543386655E-02      0.1530699959E-01
          0                 4           1             4    7     1      -0.5384140135E-05       4    7    1        -0.3085249698E-03      0.6260246318E-03

    ------------------------------------------------
       NWT REQUIRED            4 OUTER ITERATIONS 
       AND A TOTAL OF          7 INNER ITERATIONS.
    ------------------------------------------------

 NO OUTPUT CONTROL FOR STRESS PERIOD   23   TIME STEP   20
 
 SOLVING FOR HEAD 
                                                   Max.-Head-Change                         Max.-Flux-Residual
  Residual-Control   Outer-Iter.   Inner-Iter.     Column Row Layer    Maximum-Head-Change  Column Row Layer    Maximum-Flux-Residual          L2-NORM 
          0                 1           2             4    7     1       0.2011994317E-01       4    7    1         0.1061395409E+01      0.2153741949E+01
          0                 2           2             4    7     1      -0.1957129982E-02       4    7    1        -0.1061400921E+00      0.2153685309E+00
          0                 3           2             4    7     1       0.1332732163E-03       4    7    1         0.7429804434E-02      0.1507521433E-01
          0                 4           1             4    7     1      -0.5303066243E-05       4    7    1        -0.3038794462E-03      0.6165388386E-03

    ------------------------------------------------
       NWT REQUIRED            4 OUTER ITERATIONS 
       AND A TOTAL OF          7 INNER ITERATIONS.
    ------------------------------------------------

 NO OUTPUT CONTROL FOR STRESS PERIOD   23   TIME STEP   21
 
 SOLVING FOR HEAD 
                                                   Max.-Head-Change                         Max.-Flux-Residual
  Residual-Control   Outer-Iter.   Inner-Iter.     Column Row Layer    Maximum-Head-Change  Column Row Layer    Maximum-Flux-Residual          L2-NORM 
          0                 1           2             4    7     1       0.1981712361E-01       4    7    1         0.1045417429E+01      0.2121417138E+01
          0                 2           2             4    7     1      -0.1927673701E-02       4    7    1        -0.1045422810E+00      0.2121368308E+00
          0                 3           1             4    7     1       0.1312673551E-03       4    7    1         0.7317957730E-02      0.1484905392E-01
          0                 4           1             4    7     1      -0.5223251386E-05       4    7    1        -0.2993049068E-03      0.6072845182E-03

    ------------------------------------------------
       NWT REQUIRED            4 OUTER ITERATIONS 
       AND A TOTAL OF          6 INNER ITERATIONS.
    ------------------------------------------------

 NO OUTPUT CONTROL FOR STRESS PERIOD   23   TIME STEP   22
 
 SOLVING FOR HEAD 
                                                   Max.-Head-Change                         Max.-Flux-Residual
  Residual-Control   Outer-Iter.   Inner-Iter.     Column Row Layer    Maximum-Head-Change  Column Row Layer    Maximum-Flux-Residual          L2-NORM 
          0                 1           2             4    7     1       0.1951893053E-01       4    7    1         0.1029679668E+01      0.2089863482E+01
          0                 2           2             4    7     1      -0.1898667452E-02       4    7    1        -0.1029684918E+00      0.2089821607E+00
          0                 3           1             4    7     1       0.1292921393E-03       4    7    1         0.7207792574E-02      0.1462831516E-01
          0                 4           1             4    7     1      -0.5144656076E-05       4    7    1        -0.2947991495E-03      0.5982617046E-03

    ------------------------------------------------
       NWT REQUIRED            4 OUTER ITERATIONS 
       AND A TOTAL OF          6 INNER ITERATIONS.
    ------------------------------------------------

 NO OUTPUT CONTROL FOR STRESS PERIOD   23   TIME STEP   23
 
 SOLVING FOR HEAD 
                                                   Max.-Head-Change                         Max.-Flux-Residual
  Residual-Control   Outer-Iter.   Inner-Iter.     Column Row Layer    Maximum-Head-Change  Column Row Layer    Maximum-Flux-Residual          L2-NORM 
          0                 1           2             4    7     1       0.1922549061E-01       4    7    1         0.1014189159E+01      0.2059055634E+01
          0                 2           2             4    7     1      -0.1870123559E-02       4    7    1        -0.1014194281E+00      0.2059020106E+00
          0                 3           1             4    7     1       0.1273484081E-03       4    7    1         0.7099358188E-02      0.1441276477E-01
          0                 4           1             4    7     1      -0.5067313354E-05       4    7    1        -0.2903641914E-03      0.5894573783E-03

    ------------------------------------------------
       NWT REQUIRED            4 OUTER ITERATIONS 
       AND A TOTAL OF          6 INNER ITERATIONS.
    ------------------------------------------------

 NO OUTPUT CONTROL FOR STRESS PERIOD   23   TIME STEP   24
 
 SOLVING FOR HEAD 
                                                   Max.-Head-Change                         Max.-Flux-Residual
  Residual-Control   Outer-Iter.   Inner-Iter.     Column Row Layer    Maximum-Head-Change  Column Row Layer    Maximum-Flux-Residual          L2-NORM 
          0                 1           2             4    7     1       0.1893664774E-01       4    7    1         0.9989377173E+00      0.2028979891E+01
          0                 2           2             4    7     1      -0.1842026835E-02       4    7    1        -0.9989427125E-01      0.2028949647E+00
          0                 3           1             4    7     1       0.1254351269E-03       4    7    1         0.6992597289E-02      0.1420233510E-01
          0                 4           1             4    7     1      -0.4991182005E-05       4    7    1        -0.2859976348E-03      0.5808472502E-03

    ------------------------------------------------
       NWT REQUIRED            4 OUTER ITERATIONS 
       AND A TOTAL OF          6 INNER ITERATIONS.
    ------------------------------------------------

 NO OUTPUT CONTROL FOR STRESS PERIOD   23   TIME STEP   25
 
 SOLVING FOR HEAD 
                                                   Max.-Head-Change                         Max.-Flux-Residual
  Residual-Control   Outer-Iter.   Inner-Iter.     Column Row Layer    Maximum-Head-Change  Column Row Layer    Maximum-Flux-Residual          L2-NORM 
          0                 1           2             4    7     1       0.1865250732E-01       4    7    1         0.9839320021E+00      0.1999598822E+01
          0                 2           2             4    7     1      -0.1814387535E-02       4    7    1        -0.9839368721E-01      0.1999573209E+00
          0                 3           1             4    7     1       0.1235529951E-03       4    7    1         0.6887556475E-02      0.1399677248E-01
          0                 4           1             4    7     1      -0.4916290119E-05       4    7    1        -0.2817014781E-03      0.5724700325E-03

    ------------------------------------------------
       NWT REQUIRED            4 OUTER ITERATIONS 
       AND A TOTAL OF          6 INNER ITERATIONS.
    ------------------------------------------------

 NO OUTPUT CONTROL FOR STRESS PERIOD   23   TIME STEP   26
 
 SOLVING FOR HEAD 
                                                   Max.-Head-Change                         Max.-Flux-Residual
  Residual-Control   Outer-Iter.   Inner-Iter.     Column Row Layer    Maximum-Head-Change  Column Row Layer    Maximum-Flux-Residual          L2-NORM 
          0                 1           2             4    7     1       0.1837303928E-01       4    7    1         0.9691701021E+00      0.1970891464E+01
          0                 2           2             4    7     1      -0.1787202732E-02       4    7    1        -0.9691748492E-01      0.1970869786E+00
          0                 3           1             4    7     1       0.1217018122E-03       4    7    1         0.6784222369E-02      0.1379586098E-01
          0                 4           1             4    7     1      -0.4842629523E-05       4    7    1        -0.2774750967E-03      0.5643111504E-03

    ------------------------------------------------
       NWT REQUIRED            4 OUTER ITERATIONS 
       AND A TOTAL OF          6 INNER ITERATIONS.
    ------------------------------------------------

 NO OUTPUT CONTROL FOR STRESS PERIOD   23   TIME STEP   27
 
 SOLVING FOR HEAD 
                                                   Max.-Head-Change                         Max.-Flux-Residual
  Residual-Control   Outer-Iter.   Inner-Iter.     Column Row Layer    Maximum-Head-Change  Column Row Layer    Maximum-Flux-Residual          L2-NORM 
          0                 1           2             4    7     1       0.1809806637E-01       4    7    1         0.9546430794E+00      0.1942829044E+01
          0                 2           2             4    7     1      -0.1760455187E-02       4    7    1        -0.9546477054E-01      0.1942810718E+00
          0                 3           1             4    7     1       0.1198804056E-03       4    7    1         0.6682532447E-02      0.1359946254E-01
          0                 4           1             4    7     1      -0.4770154281E-05       4    7    1        -0.2733159733E-03      0.5562096878E-03

    ------------------------------------------------
       NWT REQUIRED            4 OUTER ITERATIONS 
       AND A TOTAL OF          6 INNER ITERATIONS.
    ------------------------------------------------

 NO OUTPUT CONTROL FOR STRESS PERIOD   23   TIME STEP   28
 
 SOLVING FOR HEAD 
                                                   Max.-Head-Change                         Max.-Flux-Residual
  Residual-Control   Outer-Iter.   Inner-Iter.     Column Row Layer    Maximum-Head-Change  Column Row Layer    Maximum-Flux-Residual          L2-NORM 
          0                 1           2             4    7     1       0.1782782649E-01       4    7    1         0.9403638789E+00      0.1915401988E+01
          0                 2           2             4    7     1      -0.1734168040E-02       4    7    1        -0.9403683864E-01      0.1915386730E+00
          0                 3           1             4    7     1       0.1180903502E-03       4    7    1         0.6582577283E-02      0.1340754477E-01
          0                 4           1             4    7     1      -0.4698926562E-05       4    7    1        -0.2692278113E-03      0.5483822539E-03

    ------------------------------------------------
       NWT REQUIRED            4 OUTER ITERATIONS 
       AND A TOTAL OF          6 INNER ITERATIONS.
    ------------------------------------------------

 NO OUTPUT CONTROL FOR STRESS PERIOD   23   TIME STEP   29
 
 SOLVING FOR HEAD 
                                                   Max.-Head-Change                         Max.-Flux-Residual
  Residual-Control   Outer-Iter.   Inner-Iter.     Column Row Layer    Maximum-Head-Change  Column Row Layer    Maximum-Flux-Residual          L2-NORM 
          0                 1           2             4    7     1       0.1756212898E-01       4    7    1         0.9263227011E+00      0.1888590020E+01
          0                 2           2             4    7     1      -0.1708322746E-02       4    7    1        -0.9263270922E-01      0.1888577405E+00
          0                 3           1             4    7     1       0.1163303833E-03       4    7    1         0.6484288298E-02      0.1321989342E-01
          0                 4           1             4    7     1      -0.4628895939E-05       4    7    1        -0.2652077885E-03      0.5406875819E-03

    ------------------------------------------------
       NWT REQUIRED            4 OUTER ITERATIONS 
       AND A TOTAL OF          6 INNER ITERATIONS.
    ------------------------------------------------

 NO OUTPUT CONTROL FOR STRESS PERIOD   23   TIME STEP   30



 STREAM LISTING     PERIOD     23   STEP       30

 LAYER ROW COL. STREAM  RCH.  FLOW INTO     FLOW TO   FLOW OUT OF   OVRLND.     DIRECT     STREAM       STREAM     STREAM     STREAM   STREAMBED  STREAMBED
                SEG.NO.  NO.  STRM. RCH.    AQUIFER    STRM. RCH.    RUNOFF     PRECIP       ET          HEAD       DEPTH      WIDTH   CONDCTNC.   GRADIENT

   1    1    1     1     1    1.6500E+01  1.9759E-01   1.6303E+01  0.000E+00  0.000E+00  0.000E+00  1.09409E+03  1.039E+00  1.087E+01  4.893E-02  1.346E+00
   1    2    2     1     2    1.6303E+01  3.0466E-01   1.5998E+01  0.000E+00  0.000E+00  0.000E+00  1.08909E+03  1.034E+00  1.079E+01  7.552E-02  1.345E+00
   1    3    3     1     3    1.5998E+01  2.5853E-01   1.5739E+01  0.000E+00  0.000E+00  0.000E+00  1.08345E+03  1.029E+00  1.070E+01  6.417E-02  1.343E+00
   1    3    4     1     4    1.5739E+01  2.3700E-01   1.5502E+01  0.000E+00  0.000E+00  0.000E+00  1.07843E+03  1.024E+00  1.061E+01  5.890E-02  1.341E+00
   1    4    5     2     1    1.3502E+01  2.9865E-01   1.3204E+01  0.000E+00  0.000E+00  0.000E+00  1.07276E+03  8.289E-01  1.200E+01  7.800E-02  1.276E+00
   1    5    6     2     2    1.3204E+01  2.2914E-01   1.2975E+01  0.000E+00  0.000E+00  0.000E+00  1.06733E+03  8.190E-01  1.200E+01  6.000E-02  1.273E+00
   1    6    6     2     3    1.2975E+01  2.2862E-01   1.2746E+01  0.000E+00  0.000E+00  0.000E+00  1.06260E+03  8.104E-01  1.200E+01  6.000E-02  1.270E+00
   1    7    6     2     4    1.2746E+01  2.2810E-01   1.2518E+01  0.000E+00  0.000E+00  0.000E+00  1.05788E+03  8.017E-01  1.200E+01  6.000E-02  1.267E+00
   1    8    6     2     5    1.2518E+01  2.2758E-01   1.2290E+01  0.000E+00  0.000E+00  0.000E+00  1.05315E+03  7.930E-01  1.200E+01  6.000E-02  1.264E+00
   1    3    5     3     1    2.0000E+00  2.8252E-01   1.7175E+00  0.000E+00  0.000E+00  0.000E+00  1.07555E+03  1.909E+00  9.636E+00  7.227E-02  1.955E+00
   1    3    6     3     2    1.7175E+00  2.4905E-01   1.4684E+00  0.000E+00  0.000E+00  0.000E+00  1.07264E+03  1.727E+00  8.909E+00  6.682E-02  1.864E+00
   1    3    7     3     3    1.4684E+00  1.9718E-01   1.2712E+00  0.000E+00  0.000E+00  0.000E+00  1.06987E+03  1.555E+00  8.218E+00  5.547E-02  1.777E+00
   1    4    8     3     4    1.2712E+00  2.2567E-01   1.0456E+00  0.000E+00  0.000E+00  0.000E+00  1.06682E+03  1.364E+00  7.455E+00  6.709E-02  1.682E+00
   1    5    8     3     5    1.0456E+00  1.5790E-01   8.8768E-01  0.000E+00  0.000E+00  0.000E+00  1.06362E+03  1.164E+00  6.655E+00  4.991E-02  1.582E+00
   1    6    8     3     6    8.8768E-01  5.5980E-02   8.3170E-01  0.000E+00  0.000E+00  0.000E+00  1.06158E+03  1.036E+00  6.145E+00  1.844E-02  1.518E+00
   1    5   10     4     1    1.0000E+01  9.0919E-02   9.9091E+00  0.000E+00  0.000E+00  0.000E+00  1.07836E+03  6.368E-01  1.000E+01  2.500E-02  1.212E+00
   1    5    9     4     2    9.9091E+00  1.8158E-01   9.7275E+00  0.000E+00  0.000E+00  0.000E+00  1.07154E+03  6.315E-01  1.000E+01  5.000E-02  1.211E+00
   1    6    8     4     3    9.7275E+00  1.2689E-01   9.6006E+00  0.000E+00  0.000E+00  0.000E+00  1.06381E+03  6.256E-01  1.000E+01  3.500E-02  1.209E+00
   1    6    8     5     1    1.0432E+01  2.2686E-01   1.0205E+01  0.000E+00  0.000E+00  0.000E+00  1.05868E+03  6.790E-01  1.542E+01  6.166E-02  1.226E+00
   1    7    7     5     2    1.0205E+01  2.7894E-01   9.9265E+00  0.000E+00  0.000E+00  0.000E+00  1.05417E+03  6.732E-01  1.519E+01  7.594E-02  1.224E+00
   1    8    7     5     3    9.9265E+00  1.9221E-01   9.7343E+00  0.000E+00  0.000E+00  0.000E+00  1.04992E+03  6.676E-01  1.497E+01  5.241E-02  1.223E+00
   1    8    6     5     4    9.7343E+00  1.3577E-01   9.5985E+00  0.000E+00  0.000E+00  0.000E+00  1.04691E+03  6.637E-01  1.482E+01  3.706E-02  1.221E+00
   1    9    6     6     1    2.1889E+01  2.4742E-01   2.1641E+01  0.000E+00  0.000E+00  0.000E+00  1.04385E+03  1.124E+00  1.200E+01  6.000E-02  1.375E+00
   1   10    7     6     2    2.1641E+01  2.4696E-01   2.1395E+01  0.000E+00  0.000E+00  0.000E+00  1.03930E+03  1.116E+00  1.200E+01  6.000E-02  1.372E+00
   1   11    7     6     3    2.1395E+01  2.4650E-01   2.1148E+01  0.000E+00  0.000E+00  0.000E+00  1.03474E+03  1.108E+00  1.200E+01  6.000E-02  1.369E+00
   1   12    7     6     4    2.1148E+01  2.4603E-01   2.0902E+01  0.000E+00  0.000E+00  0.000E+00  1.03019E+03  1.101E+00  1.200E+01  6.000E-02  1.367E+00
   1   13    7     6     5    2.0902E+01 -2.0474E-02   2.0922E+01  0.000E+00  0.000E+00  0.000E+00  1.02701E+03  1.097E+00  1.200E+01  2.400E-01 -2.844E-02
   1   14    9     7     1    1.5000E+02  1.3364E+00   1.4866E+02  0.000E+00  0.000E+00  0.000E+00  1.03987E+03  2.288E+00  5.529E+01  5.593E-01  7.965E-01
   1   13    8     7     2    1.4866E+02  1.8296E+00   1.4683E+02  0.000E+00  0.000E+00  0.000E+00  1.03478E+03  2.279E+00  5.526E+01  6.148E-01  9.920E-01
   1   13    7     7     3    1.4683E+02  1.4511E+00   1.4538E+02  0.000E+00  0.000E+00  0.000E+00  1.02969E+03  2.271E+00  5.522E+01  5.585E-01  8.662E-01
   1   13    6     8     1    1.6631E+02  8.7574E-01   1.6543E+02  0.000E+00  0.000E+00  0.000E+00  1.02480E+03  2.925E+00  4.241E+01  4.322E-01  6.754E-01
   1   13    5     8     2    1.6543E+02  1.3195E-01   1.6530E+02  0.000E+00  0.000E+00  0.000E+00  1.01855E+03  2.922E+00  4.237E+01  4.317E-01  1.019E-01
   1   13    4     8     3    1.6530E+02 -2.5839E+00   1.6788E+02  0.000E+00  0.000E+00  0.000E+00  1.01230E+03  2.930E+00  4.248E+01  4.329E+00 -1.990E-01
   1   13    3     8     4    1.6788E+02 -3.7042E+00   1.7159E+02  0.000E+00  0.000E+00  0.000E+00  1.00608E+03  2.950E+00  4.278E+01  4.360E+00 -2.832E-01
   1   13    2     8     5    1.7159E+02 -2.5680E+00   1.7415E+02  0.000E+00  0.000E+00  0.000E+00  9.99846E+02  2.971E+00  4.308E+01  4.390E+00 -1.950E-01
   1   13    1     8     6    1.7415E+02 -1.9543E+00   1.7611E+02  0.000E+00  0.000E+00  0.000E+00  9.94860E+02  2.985E+00  4.329E+01  2.647E+00 -2.461E-01
   1    8    6     9     1    0.0000E+00  0.0000E+00   0.0000E+00  0.000E+00  0.000E+00  0.000E+00  1.07875E+03  0.000E+00  4.000E+00  0.000E+00  1.000E+00
   1    8    5     9     2    0.0000E+00  0.0000E+00   0.0000E+00  0.000E+00  0.000E+00  0.000E+00  1.07825E+03  0.000E+00  4.000E+00  0.000E+00  1.000E+00





UNSATURATED ZONE PACKAGE VOLUMETRIC BUDGET FOR  TIME STEP    30 STRESS PERIOD   23
  ------------------------------------------------------------------------------



     CUMULATIVE VOLUMES      L**3       RATES FOR THIS TIME STEP      L**3/T
     ------------------                 ------------------------

           IN:                                      IN:
           ---                                      ---
        INFILTRATION =  1053866144.6453          INFILTRATION =           4.4075

          OUT:                                     OUT:
          ----                                     ----
              UZF ET =   993642846.4540                UZF ET =           3.7802
        UZF RECHARGE =      654716.9165          UZF RECHARGE =       0.0000E+00

            IN - OUT =    59568581.2748              IN - OUT =           0.6273

          STORAGE:                                 STORAGE:
          --------                                 --------
      STORAGE CHANGE =    59569171.8892        STORAGE CHANGE =           0.6273

 PERCENT DISCREPANCY IS DIFFERENCE BETWEEN IN-OUT MINUS CHANGE IN STORAGE
 DIVIDED BY THE AVERAGE OF IN AND OUT TIMES 100

 PERCENT DISCREPANCY =          -0.00     PERCENT DISCREPANCY =           0.00






1
  VOLUMETRIC BUDGET FOR AGRICULTURAL FIELDS AT TIME STEP   30, STRESS PERIOD  23
  ------------------------------------------------------------------------------

     CUMULATIVE VOLUMES      L**3       RATES FOR THIS TIME STEP      L**3/T
     ------------------                 ------------------------

           IN:                                      IN:
           ---                                      ---
               AG WELLS  =   175546176.0000                 AG WELLS  =           0.0000
      DIVERSION SEGMENTS =   623216576.0000        DIVERSION SEGMENTS =           0.0000
           GW IRRIGATION =           0.0000             GW IRRIGATION =           0.0000
           SW IRRIGATION =           0.0000             SW IRRIGATION =           0.0000
        SYSTEM LOSSES GW =           0.0000          SYSTEM LOSSES GW =           0.0000
        SYSTEM LOSSES SW =           0.0000          SYSTEM LOSSES SW =           0.0000

                TOTAL IN =   798762752.0000                  TOTAL IN =           0.0000

          OUT:                                     OUT:
          ----                                     ----
               AG WELLS  =           0.0000                 AG WELLS  =           0.0000
      DIVERSION SEGMENTS =           0.0000        DIVERSION SEGMENTS =           0.0000
           GW IRRIGATION =   175546176.0000             GW IRRIGATION =           0.0000
           SW IRRIGATION =   623229888.0000             SW IRRIGATION =           0.0000
        SYSTEM LOSSES GW =           0.0000          SYSTEM LOSSES GW =           0.0000
        SYSTEM LOSSES SW =           0.0000          SYSTEM LOSSES SW =           0.0000

               TOTAL OUT =   798776064.0000                 TOTAL OUT =           0.0000

                IN - OUT =      -13312.0000                  IN - OUT =           0.0000

     PERCENT DISCREPANCY =          -0.00         PERCENT DISCREPANCY =           0.00



1
  VOLUMETRIC BUDGET FOR ENTIRE MODEL AT END OF TIME STEP   30, STRESS PERIOD  23
  ------------------------------------------------------------------------------

     CUMULATIVE VOLUMES      L**3       RATES FOR THIS TIME STEP      L**3/T
     ------------------                 ------------------------

           IN:                                      IN:
           ---                                      ---
             STORAGE     =   266821808.0000               STORAGE     =           4.6435
       CONSTANT HEAD     =           0.0000         CONSTANT HEAD     =           0.0000
     HEAD DEP BOUNDS     =    16558473.0000       HEAD DEP BOUNDS     =           0.2858
      STREAM LEAKAGE     =   689911872.0000        STREAM LEAKAGE     =          11.2231
        UZF RECHARGE     =      654716.8125          UZF RECHARGE     =           0.0000
               GW ET     =           0.0000                 GW ET     =           0.0000
     SURFACE LEAKAGE     =           0.0000       SURFACE LEAKAGE     =           0.0000
           AG WELLS      =           0.0000             AG WELLS      =           0.0000

                TOTAL IN =   973946880.0000                  TOTAL IN =          16.1524

          OUT:                                     OUT:
          ----                                     ----
             STORAGE     =   148428848.0000               STORAGE     =           5.0328
       CONSTANT HEAD     =           0.0000         CONSTANT HEAD     =           0.0000
     HEAD DEP BOUNDS     =    16845364.0000       HEAD DEP BOUNDS     =           0.2888
      STREAM LEAKAGE     =   630831488.0000        STREAM LEAKAGE     =          10.8309
        UZF RECHARGE     =           0.0000          UZF RECHARGE     =           0.0000
               GW ET     =     2260364.5000                 GW ET     =           0.0000
     SURFACE LEAKAGE     =           0.0000       SURFACE LEAKAGE     =           0.0000
           AG WELLS      =   175546176.0000             AG WELLS      =           0.0000

               TOTAL OUT =   973912256.0000                 TOTAL OUT =          16.1524

                IN - OUT =       34624.0000                  IN - OUT =       3.8147E-06

     PERCENT DISCREPANCY =           0.00         PERCENT DISCREPANCY =           0.00






         TIME SUMMARY AT END OF TIME STEP   30 IN STRESS PERIOD   23
                    SECONDS     MINUTES      HOURS       DAYS        YEARS
                    -----------------------------------------------------------
   TIME STEP LENGTH  87667.      1461.1      24.352      1.0147     2.77799E-03
 STRESS PERIOD TIME 2.63000E+06  43833.      730.56      30.440     8.33397E-02
         TOTAL TIME 5.79467E+07 9.65778E+05  16096.      670.68      1.8362    
1
1
                            STRESS PERIOD NO.   24, LENGTH =   2630000.    
                            -----------------------------------------------

                              NUMBER OF TIME STEPS =    30

                               MULTIPLIER FOR DELT =     1.000

                            INITIAL TIME STEP SIZE =   87666.66    

 REUSING NON-PARAMETER GHB CELLS FROM LAST STRESS PERIOD

      2 GHB CELLS

 REUSING STREAM SEGMENT DATA FROM LAST STRESS PERIOD



            AREAL INFILTRATION RATE
 READING ON UNIT   19 WITH FORMAT: (10F4.0)            

            1           2           3           4           5           6           7           8           9          10
 ........................................................................................................................
   1   1.2000E-09   0.000       0.000       0.000       0.000       0.000       0.000       0.000       0.000       0.000    
   2   2.1000E-09  2.0000E-09  8.0000E-10  8.5000E-09   0.000       0.000       0.000       0.000       0.000       0.000    
   3   5.0000E-10  1.1000E-09  8.8000E-09  5.5000E-09   0.000       0.000       0.000       0.000       0.000       0.000    
   4   8.5000E-09  1.1000E-09  1.1000E-09  1.1000E-09  2.0000E-09   0.000       0.000       0.000       0.000       0.000    
   5   8.5000E-09  1.1000E-09  1.1000E-09  1.1000E-09  1.1000E-09   0.000       0.000       0.000       0.000       0.000    
   6   8.5000E-09  5.2000E-09  2.1000E-09  1.1000E-09  1.5000E-09   0.000       0.000       0.000       0.000       0.000    
   7   8.5000E-09  5.2000E-09  2.1000E-09  1.2000E-09  2.0000E-09   0.000       0.000       0.000       0.000       0.000    
   8   5.0000E-10  5.2000E-09  2.1000E-09  1.2000E-09  5.0000E-09   0.000       0.000       0.000       0.000       0.000    
   9   5.0000E-10  5.2000E-09  2.1000E-09  1.2000E-09  5.0000E-09   0.000       0.000       0.000       0.000       0.000    
  10   5.0000E-10  5.2000E-09  2.1000E-09  1.2000E-09  5.8000E-09   0.000       0.000       0.000       0.000       0.000    
  11   1.0000E-10  1.1000E-09  1.1000E-09  1.2000E-09  5.0000E-09   0.000       0.000       0.000       0.000       0.000    
  12   1.1000E-09  1.1000E-09  1.1000E-09  1.1000E-09  2.0000E-09   0.000       0.000       0.000       0.000       0.000    
  13   1.1000E-09  2.2000E-09  2.2000E-09  2.1000E-09  1.0000E-09   0.000       0.000       0.000       0.000       0.000    
  14   2.0000E-10  5.5000E-09  5.5000E-09  5.2000E-09  1.0000E-09   0.000       0.000       0.000       0.000       0.000    
  15    0.000      8.8000E-09  8.8000E-09   0.000       0.000       0.000       0.000       0.000       0.000       0.000    

                  ET RATE =  5.000000E-10

 USING ET EXTINCTION DEPTH FROM PREVIOUS STRESS PERIOD. CURRENT PERIOD IS:      24

 USING EXTINCTION WATER CONTENT FROM PREVIOUS STRESS PERIOD. CURRENT PERIOD IS:      24

 USING AIR ENTRY PRESSURE FROM PREVIOUS STRESS PERIOD. CURRENT PERIOD IS:      24

 USING ROOT PRESSURE HEAD FROM PREVIOUS STRESS PERIOD. CURRENT PERIOD IS:      24

 USING ROOT ACTIVITY FROM PREVIOUS STRESS PERIOD. CURRENT PERIOD IS:      24

 PROCESSING AG STRESS PERIOD DATA

 READING AG STRESS PERIOD DATA

 READING IRRIGATION SEGMENT

 READING IRRIGATION WELL

 READING SUPPLEMENTAL WELL

 END PROCESSING AG STRESS PERIOD DATA OPTIONS
 
 SOLVING FOR HEAD 
                                                   Max.-Head-Change                         Max.-Flux-Residual
  Residual-Control   Outer-Iter.   Inner-Iter.     Column Row Layer    Maximum-Head-Change  Column Row Layer    Maximum-Flux-Residual          L2-NORM 
          0                 1           2             4    7     1       0.1730078447E-01       4    7    1         0.9125096597E+00      0.1862705586E+01
          0                 2           2             4    7     1      -0.1682900882E-02       4    7    1        -0.9125139366E-01      0.1862703232E+00
          0                 3           1             4    7     1       0.1145992501E-03       4    7    1         0.6387596272E-02      0.1303885693E-01
          0                 4           1             4    7     1      -0.4560012448E-05       4    7    1        -0.2612530673E-03      0.5332821117E-03

    ------------------------------------------------
       NWT REQUIRED            4 OUTER ITERATIONS 
       AND A TOTAL OF          6 INNER ITERATIONS.
    ------------------------------------------------

 NO OUTPUT CONTROL FOR STRESS PERIOD   24   TIME STEP    1
 
 SOLVING FOR HEAD 
                                                   Max.-Head-Change                         Max.-Flux-Residual
  Residual-Control   Outer-Iter.   Inner-Iter.     Column Row Layer    Maximum-Head-Change  Column Row Layer    Maximum-Flux-Residual          L2-NORM 
          0                 1           2             4    7     1       0.1704401814E-01       4    7    1         0.8989370721E+00      0.1837788033E+01
          0                 2           2             4    7     1      -0.1657924354E-02       4    7    1        -0.8989412373E-01      0.1837791273E+00
          0                 3           1             4    7     1       0.1128984426E-03       4    7    1         0.6292587429E-02      0.1286453929E-01
          0                 4           1             4    7     1      -0.4492335609E-05       4    7    1        -0.2573672029E-03      0.5261561668E-03

    ------------------------------------------------
       NWT REQUIRED            4 OUTER ITERATIONS 
       AND A TOTAL OF          6 INNER ITERATIONS.
    ------------------------------------------------

 NO OUTPUT CONTROL FOR STRESS PERIOD   24   TIME STEP    2
 
 SOLVING FOR HEAD 
                                                   Max.-Head-Change                         Max.-Flux-Residual
  Residual-Control   Outer-Iter.   Inner-Iter.     Column Row Layer    Maximum-Head-Change  Column Row Layer    Maximum-Flux-Residual          L2-NORM 
          0                 1           2             4    7     1       0.1679163261E-01       4    7    1         0.8855944778E+00      0.1812700921E+01
          0                 2           2             4    7     1      -0.1633373962E-02       4    7    1        -0.8855985340E-01      0.1812703961E+00
          0                 3           1             4    7     1       0.1112266534E-03       4    7    1         0.6199188570E-02      0.1268893173E-01
          0                 4           1             4    7     1      -0.4425813270E-05       4    7    1        -0.2535471738E-03      0.5189792162E-03

    ------------------------------------------------
       NWT REQUIRED            4 OUTER ITERATIONS 
       AND A TOTAL OF          6 INNER ITERATIONS.
    ------------------------------------------------

 NO OUTPUT CONTROL FOR STRESS PERIOD   24   TIME STEP    3
 
 SOLVING FOR HEAD 
                                                   Max.-Head-Change                         Max.-Flux-Residual
  Residual-Control   Outer-Iter.   Inner-Iter.     Column Row Layer    Maximum-Head-Change  Column Row Layer    Maximum-Flux-Residual          L2-NORM 
          0                 1           2             4    7     1       0.1654357166E-01       4    7    1         0.8724790217E+00      0.1788153072E+01
          0                 2           2             4    7     1      -0.1609244238E-02       4    7    1        -0.8724829708E-01      0.1788156033E+00
          0                 3           1             4    7     1       0.1095835102E-03       4    7    1         0.6107379686E-02      0.1251708595E-01
          0                 4           1             4    7     1      -0.4360431385E-05       4    7    1        -0.2497921932E-03      0.5119521397E-03

    ------------------------------------------------
       NWT REQUIRED            4 OUTER ITERATIONS 
       AND A TOTAL OF          6 INNER ITERATIONS.
    ------------------------------------------------

 NO OUTPUT CONTROL FOR STRESS PERIOD   24   TIME STEP    4
 
 SOLVING FOR HEAD 
                                                   Max.-Head-Change                         Max.-Flux-Residual
  Residual-Control   Outer-Iter.   Inner-Iter.     Column Row Layer    Maximum-Head-Change  Column Row Layer    Maximum-Flux-Residual          L2-NORM 
          0                 1           2             4    7     1       0.1629977360E-01       4    7    1         0.8595877887E+00      0.1764115682E+01
          0                 2           2             4    7     1      -0.1585529181E-02       4    7    1        -0.8595916335E-01      0.1764118640E+00
          0                 3           1             4    7     1       0.1079686044E-03       4    7    1         0.6017140394E-02      0.1234883304E-01
          0                 4           1             4    7     1      -0.4296172684E-05       4    7    1        -0.2461013974E-03      0.5050702870E-03

    ------------------------------------------------
       NWT REQUIRED            4 OUTER ITERATIONS 
       AND A TOTAL OF          6 INNER ITERATIONS.
    ------------------------------------------------

 NO OUTPUT CONTROL FOR STRESS PERIOD   24   TIME STEP    5
 
 SOLVING FOR HEAD 
                                                   Max.-Head-Change                         Max.-Flux-Residual
  Residual-Control   Outer-Iter.   Inner-Iter.     Column Row Layer    Maximum-Head-Change  Column Row Layer    Maximum-Flux-Residual          L2-NORM 
          0                 1           2             4    7     1       0.1606045667E-01       4    7    1         0.8469323411E+00      0.1740597765E+01
          0                 2           2             4    7     1      -0.1562250018E-02       4    7    1        -0.8469360837E-01      0.1740600653E+00
          0                 3           1             4    7     1       0.1063833813E-03       4    7    1         0.5928551599E-02      0.1218421261E-01
          0                 4           1             4    7     1      -0.4233095193E-05       4    7    1        -0.2424781160E-03      0.4983455659E-03

    ------------------------------------------------
       NWT REQUIRED            4 OUTER ITERATIONS 
       AND A TOTAL OF          6 INNER ITERATIONS.
    ------------------------------------------------

 NO OUTPUT CONTROL FOR STRESS PERIOD   24   TIME STEP    6
 
 SOLVING FOR HEAD 
                                                   Max.-Head-Change                         Max.-Flux-Residual
  Residual-Control   Outer-Iter.   Inner-Iter.     Column Row Layer    Maximum-Head-Change  Column Row Layer    Maximum-Flux-Residual          L2-NORM 
          0                 1           2             4    7     1       0.1582499526E-01       4    7    1         0.8344797128E+00      0.1717537854E+01
          0                 2           2             4    7     1      -0.1539345897E-02       4    7    1        -0.8344833558E-01      0.1717540712E+00
          0                 3           1             4    7     1       0.1048236975E-03       4    7    1         0.5841382580E-02      0.1202279142E-01
          0                 4           1             4    7     1      -0.4171034048E-05       4    7    1        -0.2389129049E-03      0.4917338951E-03

    ------------------------------------------------
       NWT REQUIRED            4 OUTER ITERATIONS 
       AND A TOTAL OF          6 INNER ITERATIONS.
    ------------------------------------------------

 NO OUTPUT CONTROL FOR STRESS PERIOD   24   TIME STEP    7
 
 SOLVING FOR HEAD 
                                                   Max.-Head-Change                         Max.-Flux-Residual
  Residual-Control   Outer-Iter.   Inner-Iter.     Column Row Layer    Maximum-Head-Change  Column Row Layer    Maximum-Flux-Residual          L2-NORM 
          0                 1           2             4    7     1       0.1559389123E-01       4    7    1         0.8222565092E+00      0.1694980669E+01
          0                 2           2             4    7     1      -0.1516865632E-02       4    7    1        -0.8222600551E-01      0.1694983375E+00
          0                 3           1             4    7     1       0.1032928757E-03       4    7    1         0.5755819503E-02      0.1186488740E-01
          0                 4           1             4    7     1      -0.4110121416E-05       4    7    1        -0.2354133605E-03      0.4852750447E-03

    ------------------------------------------------
       NWT REQUIRED            4 OUTER ITERATIONS 
       AND A TOTAL OF          6 INNER ITERATIONS.
    ------------------------------------------------

 NO OUTPUT CONTROL FOR STRESS PERIOD   24   TIME STEP    8
 
 SOLVING FOR HEAD 
                                                   Max.-Head-Change                         Max.-Flux-Residual
  Residual-Control   Outer-Iter.   Inner-Iter.     Column Row Layer    Maximum-Head-Change  Column Row Layer    Maximum-Flux-Residual          L2-NORM 
          0                 1           2             4    7     1       0.1536679380E-01       4    7    1         0.8102444683E+00      0.1672876007E+01
          0                 2           2             4    7     1      -0.1494775104E-02       4    7    1        -0.8102479190E-01      0.1672878632E+00
          0                 3           1             4    7     1       0.1017885941E-03       4    7    1         0.5671734614E-02      0.1171015444E-01
          0                 4           1             4    7     1      -0.4050264505E-05       4    7    1        -0.2319742789E-03      0.4789471405E-03

    ------------------------------------------------
       NWT REQUIRED            4 OUTER ITERATIONS 
       AND A TOTAL OF          6 INNER ITERATIONS.
    ------------------------------------------------

 NO OUTPUT CONTROL FOR STRESS PERIOD   24   TIME STEP    9
 
 SOLVING FOR HEAD 
                                                   Max.-Head-Change                         Max.-Flux-Residual
  Residual-Control   Outer-Iter.   Inner-Iter.     Column Row Layer    Maximum-Head-Change  Column Row Layer    Maximum-Flux-Residual          L2-NORM 
          0                 1           2             4    7     1       0.1514390976E-01       4    7    1         0.7984549269E+00      0.1651216046E+01
          0                 2           2             4    7     1      -0.1473094429E-02       4    7    1        -0.7984582854E-01      0.1651218325E+00
          0                 3           1             4    7     1       0.1003122217E-03       4    7    1         0.5589207227E-02      0.1155853068E-01
          0                 4           1             4    7     1      -0.3991518344E-05       4    7    1        -0.2285989092E-03      0.4727478142E-03

    ------------------------------------------------
       NWT REQUIRED            4 OUTER ITERATIONS 
       AND A TOTAL OF          6 INNER ITERATIONS.
    ------------------------------------------------

 NO OUTPUT CONTROL FOR STRESS PERIOD   24   TIME STEP   10
 
 SOLVING FOR HEAD 
                                                   Max.-Head-Change                         Max.-Flux-Residual
  Residual-Control   Outer-Iter.   Inner-Iter.     Column Row Layer    Maximum-Head-Change  Column Row Layer    Maximum-Flux-Residual          L2-NORM 
          0                 1           2             4    7     1       0.1492462267E-01       4    7    1         0.7868543188E+00      0.1629993044E+01
          0                 2           2             4    7     1      -0.1451763641E-02       4    7    1        -0.7868575869E-01      0.1629995980E+00
          0                 3           1             4    7     1       0.9885967524E-04       4    7    1         0.5508002389E-02      0.1141002137E-01

    ------------------------------------------------
       NWT REQUIRED            3 OUTER ITERATIONS 
       AND A TOTAL OF          5 INNER ITERATIONS.
    ------------------------------------------------

 NO OUTPUT CONTROL FOR STRESS PERIOD   24   TIME STEP   11
 
 SOLVING FOR HEAD 
                                                   Max.-Head-Change                         Max.-Flux-Residual
  Residual-Control   Outer-Iter.   Inner-Iter.     Column Row Layer    Maximum-Head-Change  Column Row Layer    Maximum-Flux-Residual          L2-NORM 
          0                 1           2             4    7     1       0.1470935558E-01       4    7    1         0.7754659569E+00      0.1609195966E+01
          0                 2           2             4    7     1      -0.1430823893E-02       4    7    1        -0.7754691372E-01      0.1609197883E+00
          0                 3           1             4    7     1       0.9743375735E-04       4    7    1         0.5428283285E-02      0.1126438685E-01

    ------------------------------------------------
       NWT REQUIRED            3 OUTER ITERATIONS 
       AND A TOTAL OF          5 INNER ITERATIONS.
    ------------------------------------------------

 NO OUTPUT CONTROL FOR STRESS PERIOD   24   TIME STEP   12
 
 SOLVING FOR HEAD 
                                                   Max.-Head-Change                         Max.-Flux-Residual
  Residual-Control   Outer-Iter.   Inner-Iter.     Column Row Layer    Maximum-Head-Change  Column Row Layer    Maximum-Flux-Residual          L2-NORM 
          0                 1           2             4    7     1       0.1449810373E-01       4    7    1         0.7642898693E+00      0.1588812069E+01
          0                 2           2             4    7     1      -0.1410274722E-02       4    7    1        -0.7642929641E-01      0.1588814313E+00
          0                 3           1             4    7     1       0.9603443634E-04       4    7    1         0.5350050118E-02      0.1112170322E-01

    ------------------------------------------------
       NWT REQUIRED            3 OUTER ITERATIONS 
       AND A TOTAL OF          5 INNER ITERATIONS.
    ------------------------------------------------

 NO OUTPUT CONTROL FOR STRESS PERIOD   24   TIME STEP   13
 
 SOLVING FOR HEAD 
                                                   Max.-Head-Change                         Max.-Flux-Residual
  Residual-Control   Outer-Iter.   Inner-Iter.     Column Row Layer    Maximum-Head-Change  Column Row Layer    Maximum-Flux-Residual          L2-NORM 
          0                 1           2             4    7     1       0.1429051527E-01       4    7    1         0.7533072016E+00      0.1568813487E+01
          0                 2           2             4    7     1      -0.1390081902E-02       4    7    1        -0.7533102131E-01      0.1568815621E+00
          0                 3           1             4    7     1       0.9465938190E-04       4    7    1         0.5273170933E-02      0.1098171126E-01

    ------------------------------------------------
       NWT REQUIRED            3 OUTER ITERATIONS 
       AND A TOTAL OF          5 INNER ITERATIONS.
    ------------------------------------------------

 NO OUTPUT CONTROL FOR STRESS PERIOD   24   TIME STEP   14
 
 SOLVING FOR HEAD 
                                                   Max.-Head-Change                         Max.-Flux-Residual
  Residual-Control   Outer-Iter.   Inner-Iter.     Column Row Layer    Maximum-Head-Change  Column Row Layer    Maximum-Flux-Residual          L2-NORM 
          0                 1           2             4    7     1       0.1408680065E-01       4    7    1         0.7425292389E+00      0.1549226725E+01
          0                 2           2             4    7     1      -0.1370265905E-02       4    7    1        -0.7425321694E-01      0.1549228742E+00
          0                 3           1             4    7     1       0.9330998688E-04       4    7    1         0.5197724659E-02      0.1084460044E-01

    ------------------------------------------------
       NWT REQUIRED            3 OUTER ITERATIONS 
       AND A TOTAL OF          5 INNER ITERATIONS.
    ------------------------------------------------

 NO OUTPUT CONTROL FOR STRESS PERIOD   24   TIME STEP   15
 
 SOLVING FOR HEAD 
                                                   Max.-Head-Change                         Max.-Flux-Residual
  Residual-Control   Outer-Iter.   Inner-Iter.     Column Row Layer    Maximum-Head-Change  Column Row Layer    Maximum-Flux-Residual          L2-NORM 
          0                 1           2             4    7     1       0.1388633839E-01       4    7    1         0.7319225993E+00      0.1529997845E+01
          0                 2           2             4    7     1      -0.1350766276E-02       4    7    1        -0.7319254505E-01      0.1529999802E+00
          0                 3           1             4    7     1       0.9198213575E-04       4    7    1         0.5123477670E-02      0.1071000103E-01

    ------------------------------------------------
       NWT REQUIRED            3 OUTER ITERATIONS 
       AND A TOTAL OF          5 INNER ITERATIONS.
    ------------------------------------------------

 NO OUTPUT CONTROL FOR STRESS PERIOD   24   TIME STEP   16
 
 SOLVING FOR HEAD 
                                                   Max.-Head-Change                         Max.-Flux-Residual
  Residual-Control   Outer-Iter.   Inner-Iter.     Column Row Layer    Maximum-Head-Change  Column Row Layer    Maximum-Flux-Residual          L2-NORM 
          0                 1           2             4    7     1       0.1368989973E-01       4    7    1         0.7215288846E+00      0.1511161415E+01
          0                 2           2             4    7     1      -0.1331658038E-02       4    7    1        -0.7215316593E-01      0.1511163242E+00
          0                 3           1             4    7     1       0.9068093639E-04       4    7    1         0.5050721164E-02      0.1057814410E-01

    ------------------------------------------------
       NWT REQUIRED            3 OUTER ITERATIONS 
       AND A TOTAL OF          5 INNER ITERATIONS.
    ------------------------------------------------

 NO OUTPUT CONTROL FOR STRESS PERIOD   24   TIME STEP   17
 
 SOLVING FOR HEAD 
                                                   Max.-Head-Change                         Max.-Flux-Residual
  Residual-Control   Outer-Iter.   Inner-Iter.     Column Row Layer    Maximum-Head-Change  Column Row Layer    Maximum-Flux-Residual          L2-NORM 
          0                 1           2             4    7     1       0.1349684935E-01       4    7    1         0.7113142568E+00      0.1492675941E+01
          0                 2           2             4    7     1      -0.1312879391E-02       4    7    1        -0.7113169567E-01      0.1492676422E+00
          0                 3           1             4    7     1       0.8940218148E-04       4    7    1         0.4979218289E-02      0.1044873627E-01

    ------------------------------------------------
       NWT REQUIRED            3 OUTER ITERATIONS 
       AND A TOTAL OF          5 INNER ITERATIONS.
    ------------------------------------------------

 NO OUTPUT CONTROL FOR STRESS PERIOD   24   TIME STEP   18
 
 SOLVING FOR HEAD 
                                                   Max.-Head-Change                         Max.-Flux-Residual
  Residual-Control   Outer-Iter.   Inner-Iter.     Column Row Layer    Maximum-Head-Change  Column Row Layer    Maximum-Flux-Residual          L2-NORM 
          0                 1           2             4    7     1       0.1330712568E-01       4    7    1         0.7012753055E+00      0.1474537973E+01
          0                 2           2             4    7     1      -0.1294424342E-02       4    7    1        -0.7012779324E-01      0.1474539582E+00
          0                 3           1             4    7     1       0.8814546202E-04       4    7    1         0.4908945163E-02      0.1032177201E-01

    ------------------------------------------------
       NWT REQUIRED            3 OUTER ITERATIONS 
       AND A TOTAL OF          5 INNER ITERATIONS.
    ------------------------------------------------

 NO OUTPUT CONTROL FOR STRESS PERIOD   24   TIME STEP   19
 
 SOLVING FOR HEAD 
                                                   Max.-Head-Change                         Max.-Flux-Residual
  Residual-Control   Outer-Iter.   Inner-Iter.     Column Row Layer    Maximum-Head-Change  Column Row Layer    Maximum-Flux-Residual          L2-NORM 
          0                 1           2             4    7     1       0.1312120999E-01       4    7    1         0.6914383719E+00      0.1456748771E+01
          0                 2           2             4    7     1      -0.1276339711E-02       4    7    1        -0.6914409285E-01      0.1456750336E+00
          0                 3           1             4    7     1       0.8691396650E-04       4    7    1         0.4840086168E-02      0.1019725477E-01

    ------------------------------------------------
       NWT REQUIRED            3 OUTER ITERATIONS 
       AND A TOTAL OF          5 INNER ITERATIONS.
    ------------------------------------------------

 NO OUTPUT CONTROL FOR STRESS PERIOD   24   TIME STEP   20
 
 SOLVING FOR HEAD 
                                                   Max.-Head-Change                         Max.-Flux-Residual
  Residual-Control   Outer-Iter.   Inner-Iter.     Column Row Layer    Maximum-Head-Change  Column Row Layer    Maximum-Flux-Residual          L2-NORM 
          0                 1           2             4    7     1       0.1293820298E-01       4    7    1         0.6817545754E+00      0.1439286305E+01
          0                 2           2             4    7     1      -0.1258538017E-02       4    7    1        -0.6817570629E-01      0.1439287719E+00
          0                 3           1             4    7     1       0.8570173807E-04       4    7    1         0.4772299139E-02      0.1007501585E-01

    ------------------------------------------------
       NWT REQUIRED            3 OUTER ITERATIONS 
       AND A TOTAL OF          5 INNER ITERATIONS.
    ------------------------------------------------

 NO OUTPUT CONTROL FOR STRESS PERIOD   24   TIME STEP   21
 
 SOLVING FOR HEAD 
                                                   Max.-Head-Change                         Max.-Flux-Residual
  Residual-Control   Outer-Iter.   Inner-Iter.     Column Row Layer    Maximum-Head-Change  Column Row Layer    Maximum-Flux-Residual          L2-NORM 
          0                 1           2             4    7     1       0.1275887284E-01       4    7    1         0.6722658914E+00      0.1422161407E+01
          0                 2           2             4    7     1      -0.1241093987E-02       4    7    1        -0.6722683122E-01      0.1422162713E+00
          0                 3           1             4    7     1       0.8451386569E-04       4    7    1         0.4705877933E-02      0.9955135815E-02

    ------------------------------------------------
       NWT REQUIRED            3 OUTER ITERATIONS 
       AND A TOTAL OF          5 INNER ITERATIONS.
    ------------------------------------------------

 NO OUTPUT CONTROL FOR STRESS PERIOD   24   TIME STEP   22
 
 SOLVING FOR HEAD 
                                                   Max.-Head-Change                         Max.-Flux-Residual
  Residual-Control   Outer-Iter.   Inner-Iter.     Column Row Layer    Maximum-Head-Change  Column Row Layer    Maximum-Flux-Residual          L2-NORM 
          0                 1           2             4    7     1       0.1258258841E-01       4    7    1         0.6629383123E+00      0.1405338546E+01
          0                 2           2             4    7     1      -0.1223946223E-02       4    7    1        -0.6629406683E-01      0.1405339707E+00
          0                 3           1             4    7     1       0.8334616710E-04       4    7    1         0.4640584461E-02      0.9837375937E-02

    ------------------------------------------------
       NWT REQUIRED            3 OUTER ITERATIONS 
       AND A TOTAL OF          5 INNER ITERATIONS.
    ------------------------------------------------

 NO OUTPUT CONTROL FOR STRESS PERIOD   24   TIME STEP   23
 
 SOLVING FOR HEAD 
                                                   Max.-Head-Change                         Max.-Flux-Residual
  Residual-Control   Outer-Iter.   Inner-Iter.     Column Row Layer    Maximum-Head-Change  Column Row Layer    Maximum-Flux-Residual          L2-NORM 
          0                 1           2             4    7     1       0.1240929831E-01       4    7    1         0.6537686478E+00      0.1388829128E+01
          0                 2           2             4    7     1      -0.1207089729E-02       4    7    1        -0.6537709405E-01      0.1388830250E+00
          0                 3           1             4    7     1       0.8219830386E-04       4    7    1         0.4576396398E-02      0.9721807222E-02

    ------------------------------------------------
       NWT REQUIRED            3 OUTER ITERATIONS 
       AND A TOTAL OF          5 INNER ITERATIONS.
    ------------------------------------------------

 NO OUTPUT CONTROL FOR STRESS PERIOD   24   TIME STEP   24
 
 SOLVING FOR HEAD 
                                                   Max.-Head-Change                         Max.-Flux-Residual
  Residual-Control   Outer-Iter.   Inner-Iter.     Column Row Layer    Maximum-Head-Change  Column Row Layer    Maximum-Flux-Residual          L2-NORM 
          0                 1           2             4    7     1       0.1223948280E-01       4    7    1         0.6447837727E+00      0.1372622853E+01
          0                 2           2             4    7     1      -0.1190571219E-02       4    7    1        -0.6447860040E-01      0.1372624535E+00
          0                 3           1             4    7     1       0.8107345521E-04       4    7    1         0.4513501870E-02      0.9608490411E-02

    ------------------------------------------------
       NWT REQUIRED            3 OUTER ITERATIONS 
       AND A TOTAL OF          5 INNER ITERATIONS.
    ------------------------------------------------

 NO OUTPUT CONTROL FOR STRESS PERIOD   24   TIME STEP   25
 
 SOLVING FOR HEAD 
                                                   Max.-Head-Change                         Max.-Flux-Residual
  Residual-Control   Outer-Iter.   Inner-Iter.     Column Row Layer    Maximum-Head-Change  Column Row Layer    Maximum-Flux-Residual          L2-NORM 
          0                 1           2             4    7     1       0.1207252360E-01       4    7    1         0.6359495113E+00      0.1356713052E+01
          0                 2           2             4    7     1      -0.1174330554E-02       4    7    1        -0.6359516830E-01      0.1356713845E+00
          0                 3           1             4    7     1       0.7996752716E-04       4    7    1         0.4451661654E-02      0.9496988307E-02

    ------------------------------------------------
       NWT REQUIRED            3 OUTER ITERATIONS 
       AND A TOTAL OF          5 INNER ITERATIONS.
    ------------------------------------------------

 NO OUTPUT CONTROL FOR STRESS PERIOD   24   TIME STEP   26
 
 SOLVING FOR HEAD 
                                                   Max.-Head-Change                         Max.-Flux-Residual
  Residual-Control   Outer-Iter.   Inner-Iter.     Column Row Layer    Maximum-Head-Change  Column Row Layer    Maximum-Flux-Residual          L2-NORM 
          0                 1           2             4    7     1       0.1190863517E-01       4    7    1         0.6272781145E+00      0.1341095645E+01
          0                 2           2             4    7     1      -0.1158388593E-02       4    7    1        -0.6272802283E-01      0.1341096492E+00
          0                 3           1             4    7     1       0.7888193952E-04       4    7    1         0.4390961507E-02      0.9387691417E-02

    ------------------------------------------------
       NWT REQUIRED            3 OUTER ITERATIONS 
       AND A TOTAL OF          5 INNER ITERATIONS.
    ------------------------------------------------

 NO OUTPUT CONTROL FOR STRESS PERIOD   24   TIME STEP   27
 
 SOLVING FOR HEAD 
                                                   Max.-Head-Change                         Max.-Flux-Residual
  Residual-Control   Outer-Iter.   Inner-Iter.     Column Row Layer    Maximum-Head-Change  Column Row Layer    Maximum-Flux-Residual          L2-NORM 
          0                 1           2             4    7     1       0.1174774804E-01       4    7    1         0.6187659326E+00      0.1325745084E+01
          0                 2           2             4    7     1      -0.1142738579E-02       4    7    1        -0.6187679902E-01      0.1325745576E+00
          0                 3           1             4    7     1       0.7781623197E-04       4    7    1         0.4331375854E-02      0.9280202250E-02

    ------------------------------------------------
       NWT REQUIRED            3 OUTER ITERATIONS 
       AND A TOTAL OF          5 INNER ITERATIONS.
    ------------------------------------------------

 NO OUTPUT CONTROL FOR STRESS PERIOD   24   TIME STEP   28
 
 SOLVING FOR HEAD 
                                                   Max.-Head-Change                         Max.-Flux-Residual
  Residual-Control   Outer-Iter.   Inner-Iter.     Column Row Layer    Maximum-Head-Change  Column Row Layer    Maximum-Flux-Residual          L2-NORM 
          0                 1           2             4    7     1       0.1158952705E-01       4    7    1         0.6103945935E+00      0.1310668580E+01
          0                 2           2             4    7     1      -0.1127347910E-02       4    7    1        -0.6103965960E-01      0.1310669069E+00
          0                 3           1             4    7     1       0.7676818545E-04       4    7    1         0.4272776121E-02      0.9174672414E-02

    ------------------------------------------------
       NWT REQUIRED            3 OUTER ITERATIONS 
       AND A TOTAL OF          5 INNER ITERATIONS.
    ------------------------------------------------

 NO OUTPUT CONTROL FOR STRESS PERIOD   24   TIME STEP   29
 
 SOLVING FOR HEAD 
                                                   Max.-Head-Change                         Max.-Flux-Residual
  Residual-Control   Outer-Iter.   Inner-Iter.     Column Row Layer    Maximum-Head-Change  Column Row Layer    Maximum-Flux-Residual          L2-NORM 
          0                 1           2             4    7     1       0.1143446436E-01       4    7    1         0.6021910305E+00      0.1295863453E+01
          0                 2           2             4    7     1      -0.1112264461E-02       4    7    1        -0.6021929802E-01      0.1295863822E+00
          0                 3           1             4    7     1       0.7574105942E-04       4    7    1         0.4215350846E-02      0.9071045596E-02

    ------------------------------------------------
       NWT REQUIRED            3 OUTER ITERATIONS 
       AND A TOTAL OF          5 INNER ITERATIONS.
    ------------------------------------------------

 NO OUTPUT CONTROL FOR STRESS PERIOD   24   TIME STEP   30



 STREAM LISTING     PERIOD     24   STEP       30

 LAYER ROW COL. STREAM  RCH.  FLOW INTO     FLOW TO   FLOW OUT OF   OVRLND.     DIRECT     STREAM       STREAM     STREAM     STREAM   STREAMBED  STREAMBED
                SEG.NO.  NO.  STRM. RCH.    AQUIFER    STRM. RCH.    RUNOFF     PRECIP       ET          HEAD       DEPTH      WIDTH   CONDCTNC.   GRADIENT

   1    1    1     1     1    1.5750E+01  1.9239E-01   1.5558E+01  0.000E+00  0.000E+00  0.000E+00  1.09407E+03  1.025E+00  1.062E+01  4.780E-02  1.342E+00
   1    2    2     1     2    1.5558E+01  2.9660E-01   1.5261E+01  0.000E+00  0.000E+00  0.000E+00  1.08908E+03  1.020E+00  1.054E+01  7.378E-02  1.340E+00
   1    3    3     1     3    1.5261E+01  2.5164E-01   1.5010E+01  0.000E+00  0.000E+00  0.000E+00  1.08343E+03  1.015E+00  1.045E+01  6.268E-02  1.338E+00
   1    3    4     1     4    1.5010E+01  2.3064E-01   1.4779E+01  0.000E+00  0.000E+00  0.000E+00  1.07842E+03  1.010E+00  1.036E+01  5.752E-02  1.337E+00
   1    4    5     2     1    1.2779E+01  2.9653E-01   1.2482E+01  0.000E+00  0.000E+00  0.000E+00  1.07274E+03  8.017E-01  1.200E+01  7.800E-02  1.267E+00
   1    5    6     2     2    1.2482E+01  2.2750E-01   1.2255E+01  0.000E+00  0.000E+00  0.000E+00  1.06730E+03  7.917E-01  1.200E+01  6.000E-02  1.264E+00
   1    6    6     2     3    1.2255E+01  2.2697E-01   1.2028E+01  0.000E+00  0.000E+00  0.000E+00  1.06258E+03  7.829E-01  1.200E+01  6.000E-02  1.261E+00
   1    7    6     2     4    1.2028E+01  2.2645E-01   1.1802E+01  0.000E+00  0.000E+00  0.000E+00  1.05785E+03  7.741E-01  1.200E+01  6.000E-02  1.258E+00
   1    8    6     2     5    1.1802E+01  2.2591E-01   1.1576E+01  0.000E+00  0.000E+00  0.000E+00  1.05312E+03  7.652E-01  1.200E+01  6.000E-02  1.255E+00
   1    3    5     3     1    2.0000E+00  2.8252E-01   1.7175E+00  0.000E+00  0.000E+00  0.000E+00  1.07555E+03  1.909E+00  9.636E+00  7.227E-02  1.955E+00
   1    3    6     3     2    1.7175E+00  2.4905E-01   1.4684E+00  0.000E+00  0.000E+00  0.000E+00  1.07264E+03  1.727E+00  8.909E+00  6.682E-02  1.864E+00
   1    3    7     3     3    1.4684E+00  1.9718E-01   1.2712E+00  0.000E+00  0.000E+00  0.000E+00  1.06987E+03  1.555E+00  8.218E+00  5.547E-02  1.777E+00
   1    4    8     3     4    1.2712E+00  2.2567E-01   1.0456E+00  0.000E+00  0.000E+00  0.000E+00  1.06682E+03  1.364E+00  7.455E+00  6.709E-02  1.682E+00
   1    5    8     3     5    1.0456E+00  1.5790E-01   8.8768E-01  0.000E+00  0.000E+00  0.000E+00  1.06362E+03  1.164E+00  6.655E+00  4.991E-02  1.582E+00
   1    6    8     3     6    8.8768E-01  5.5980E-02   8.3170E-01  0.000E+00  0.000E+00  0.000E+00  1.06158E+03  1.036E+00  6.145E+00  1.844E-02  1.518E+00
   1    5   10     4     1    1.0000E+01  9.0919E-02   9.9091E+00  0.000E+00  0.000E+00  0.000E+00  1.07836E+03  6.368E-01  1.000E+01  2.500E-02  1.212E+00
   1    5    9     4     2    9.9091E+00  1.8158E-01   9.7275E+00  0.000E+00  0.000E+00  0.000E+00  1.07154E+03  6.315E-01  1.000E+01  5.000E-02  1.211E+00
   1    6    8     4     3    9.7275E+00  1.2689E-01   9.6006E+00  0.000E+00  0.000E+00  0.000E+00  1.06381E+03  6.256E-01  1.000E+01  3.500E-02  1.209E+00
   1    6    8     5     1    1.0432E+01  2.2686E-01   1.0205E+01  0.000E+00  0.000E+00  0.000E+00  1.05868E+03  6.790E-01  1.542E+01  6.166E-02  1.226E+00
   1    7    7     5     2    1.0205E+01  2.7894E-01   9.9265E+00  0.000E+00  0.000E+00  0.000E+00  1.05417E+03  6.732E-01  1.519E+01  7.594E-02  1.224E+00
   1    8    7     5     3    9.9265E+00  1.9221E-01   9.7343E+00  0.000E+00  0.000E+00  0.000E+00  1.04992E+03  6.676E-01  1.497E+01  5.241E-02  1.223E+00
   1    8    6     5     4    9.7343E+00  1.3577E-01   9.5985E+00  0.000E+00  0.000E+00  0.000E+00  1.04691E+03  6.637E-01  1.482E+01  3.706E-02  1.221E+00
   1    9    6     6     1    2.1174E+01  2.4608E-01   2.0928E+01  0.000E+00  0.000E+00  0.000E+00  1.04383E+03  1.101E+00  1.200E+01  6.000E-02  1.367E+00
   1   10    7     6     2    2.0928E+01  2.4562E-01   2.0682E+01  0.000E+00  0.000E+00  0.000E+00  1.03928E+03  1.094E+00  1.200E+01  6.000E-02  1.365E+00
   1   11    7     6     3    2.0682E+01  2.4515E-01   2.0437E+01  0.000E+00  0.000E+00  0.000E+00  1.03472E+03  1.086E+00  1.200E+01  6.000E-02  1.362E+00
   1   12    7     6     4    2.0437E+01  2.4469E-01   2.0193E+01  0.000E+00  0.000E+00  0.000E+00  1.03017E+03  1.078E+00  1.200E+01  6.000E-02  1.359E+00
   1   13    7     6     5    2.0193E+01 -2.6011E-02   2.0219E+01  0.000E+00  0.000E+00  0.000E+00  1.02698E+03  1.075E+00  1.200E+01  2.400E-01 -3.613E-02
   1   14    9     7     1    1.5000E+02  1.3367E+00   1.4866E+02  0.000E+00  0.000E+00  0.000E+00  1.03987E+03  2.288E+00  5.529E+01  5.593E-01  7.967E-01
   1   13    8     7     2    1.4866E+02  1.8298E+00   1.4683E+02  0.000E+00  0.000E+00  0.000E+00  1.03478E+03  2.279E+00  5.526E+01  6.148E-01  9.921E-01
   1   13    7     7     3    1.4683E+02  1.4508E+00   1.4538E+02  0.000E+00  0.000E+00  0.000E+00  1.02969E+03  2.271E+00  5.522E+01  5.585E-01  8.659E-01
   1   13    6     8     1    1.6560E+02  8.7435E-01   1.6473E+02  0.000E+00  0.000E+00  0.000E+00  1.02480E+03  2.920E+00  4.235E+01  4.315E-01  6.754E-01
   1   13    5     8     2    1.6473E+02  1.3269E-01   1.6459E+02  0.000E+00  0.000E+00  0.000E+00  1.01854E+03  2.917E+00  4.230E+01  4.310E-01  1.026E-01
   1   13    4     8     3    1.6459E+02 -2.5824E+00   1.6718E+02  0.000E+00  0.000E+00  0.000E+00  1.01230E+03  2.925E+00  4.242E+01  4.322E+00 -1.992E-01
   1   13    3     8     4    1.6718E+02 -3.7127E+00   1.7089E+02  0.000E+00  0.000E+00  0.000E+00  1.00607E+03  2.946E+00  4.272E+01  4.353E+00 -2.843E-01
   1   13    2     8     5    1.7089E+02 -2.5871E+00   1.7348E+02  0.000E+00  0.000E+00  0.000E+00  9.99841E+02  2.966E+00  4.301E+01  4.383E+00 -1.968E-01
   1   13    1     8     6    1.7348E+02 -1.9768E+00   1.7545E+02  0.000E+00  0.000E+00  0.000E+00  9.94856E+02  2.981E+00  4.323E+01  2.643E+00 -2.493E-01
   1    8    6     9     1    0.0000E+00  0.0000E+00   0.0000E+00  0.000E+00  0.000E+00  0.000E+00  1.07875E+03  0.000E+00  4.000E+00  0.000E+00  1.000E+00
   1    8    5     9     2    0.0000E+00  0.0000E+00   0.0000E+00  0.000E+00  0.000E+00  0.000E+00  1.07825E+03  0.000E+00  4.000E+00  0.000E+00  1.000E+00





UNSATURATED ZONE PACKAGE VOLUMETRIC BUDGET FOR  TIME STEP    30 STRESS PERIOD   24
  ------------------------------------------------------------------------------



     CUMULATIVE VOLUMES      L**3       RATES FOR THIS TIME STEP      L**3/T
     ------------------                 ------------------------

           IN:                                      IN:
           ---                                      ---
        INFILTRATION =  1065457869.2034          INFILTRATION =           4.4075

          OUT:                                     OUT:
          ----                                     ----
              UZF ET =   995549628.9033                UZF ET =           0.7250
        UZF RECHARGE =      654716.9165          UZF RECHARGE =       0.0000E+00

            IN - OUT =    69253523.3835              IN - OUT =           3.6825

          STORAGE:                                 STORAGE:
          --------                                 --------
      STORAGE CHANGE =    69254113.9352        STORAGE CHANGE =           3.6825

 PERCENT DISCREPANCY IS DIFFERENCE BETWEEN IN-OUT MINUS CHANGE IN STORAGE
 DIVIDED BY THE AVERAGE OF IN AND OUT TIMES 100

 PERCENT DISCREPANCY =          -0.00     PERCENT DISCREPANCY =           0.00






1
  VOLUMETRIC BUDGET FOR AGRICULTURAL FIELDS AT TIME STEP   30, STRESS PERIOD  24
  ------------------------------------------------------------------------------

     CUMULATIVE VOLUMES      L**3       RATES FOR THIS TIME STEP      L**3/T
     ------------------                 ------------------------

           IN:                                      IN:
           ---                                      ---
               AG WELLS  =   175546176.0000                 AG WELLS  =           0.0000
      DIVERSION SEGMENTS =   623216576.0000        DIVERSION SEGMENTS =           0.0000
           GW IRRIGATION =           0.0000             GW IRRIGATION =           0.0000
           SW IRRIGATION =           0.0000             SW IRRIGATION =           0.0000
        SYSTEM LOSSES GW =           0.0000          SYSTEM LOSSES GW =           0.0000
        SYSTEM LOSSES SW =           0.0000          SYSTEM LOSSES SW =           0.0000

                TOTAL IN =   798762752.0000                  TOTAL IN =           0.0000

          OUT:                                     OUT:
          ----                                     ----
               AG WELLS  =           0.0000                 AG WELLS  =           0.0000
      DIVERSION SEGMENTS =           0.0000        DIVERSION SEGMENTS =           0.0000
           GW IRRIGATION =   175546176.0000             GW IRRIGATION =           0.0000
           SW IRRIGATION =   623229888.0000             SW IRRIGATION =           0.0000
        SYSTEM LOSSES GW =           0.0000          SYSTEM LOSSES GW =           0.0000
        SYSTEM LOSSES SW =           0.0000          SYSTEM LOSSES SW =           0.0000

               TOTAL OUT =   798776064.0000                 TOTAL OUT =           0.0000

                IN - OUT =      -13312.0000                  IN - OUT =           0.0000

     PERCENT DISCREPANCY =          -0.00         PERCENT DISCREPANCY =           0.00



1
  VOLUMETRIC BUDGET FOR ENTIRE MODEL AT END OF TIME STEP   30, STRESS PERIOD  24
  ------------------------------------------------------------------------------

     CUMULATIVE VOLUMES      L**3       RATES FOR THIS TIME STEP      L**3/T
     ------------------                 ------------------------

           IN:                                      IN:
           ---                                      ---
             STORAGE     =   277474624.0000               STORAGE     =           3.5441
       CONSTANT HEAD     =           0.0000         CONSTANT HEAD     =           0.0000
     HEAD DEP BOUNDS     =    17310148.0000       HEAD DEP BOUNDS     =           0.2858
      STREAM LEAKAGE     =   719314560.0000        STREAM LEAKAGE     =          11.1820
        UZF RECHARGE     =      654716.8125          UZF RECHARGE     =           0.0000
               GW ET     =           0.0000                 GW ET     =           0.0000
     SURFACE LEAKAGE     =           0.0000       SURFACE LEAKAGE     =           0.0000
           AG WELLS      =           0.0000             AG WELLS      =           0.0000

                TOTAL IN =  1014754048.0000                  TOTAL IN =          15.0120

          OUT:                                     OUT:
          ----                                     ----
             STORAGE     =   159838112.0000               STORAGE     =           3.8380
       CONSTANT HEAD     =           0.0000         CONSTANT HEAD     =           0.0000
     HEAD DEP BOUNDS     =    17605128.0000       HEAD DEP BOUNDS     =           0.2890
      STREAM LEAKAGE     =   659469696.0000        STREAM LEAKAGE     =          10.8851
        UZF RECHARGE     =           0.0000          UZF RECHARGE     =           0.0000
               GW ET     =     2260364.5000                 GW ET     =           0.0000
     SURFACE LEAKAGE     =           0.0000       SURFACE LEAKAGE     =           0.0000
           AG WELLS      =   175546176.0000             AG WELLS      =           0.0000

               TOTAL OUT =  1014719424.0000                 TOTAL OUT =          15.0120

                IN - OUT =       34624.0000                  IN - OUT =      -8.0109E-05

     PERCENT DISCREPANCY =           0.00         PERCENT DISCREPANCY =          -0.00






         TIME SUMMARY AT END OF TIME STEP   30 IN STRESS PERIOD   24
                    SECONDS     MINUTES      HOURS       DAYS        YEARS
                    -----------------------------------------------------------
   TIME STEP LENGTH  87667.      1461.1      24.352      1.0147     2.77799E-03
 STRESS PERIOD TIME 2.63000E+06  43833.      730.56      30.440     8.33397E-02
         TOTAL TIME 6.05767E+07 1.00961E+06  16827.      701.12      1.9196    
1
1
                            STRESS PERIOD NO.   25, LENGTH =   2630000.    
                            -----------------------------------------------

                              NUMBER OF TIME STEPS =    30

                               MULTIPLIER FOR DELT =     1.000

                            INITIAL TIME STEP SIZE =   87666.66    

 REUSING NON-PARAMETER GHB CELLS FROM LAST STRESS PERIOD

      2 GHB CELLS

 REUSING STREAM SEGMENT DATA FROM LAST STRESS PERIOD



            AREAL INFILTRATION RATE
 READING ON UNIT   19 WITH FORMAT: (10F4.0)            

            1           2           3           4           5           6           7           8           9          10
 ........................................................................................................................
   1   1.2000E-09   0.000       0.000       0.000       0.000       0.000       0.000       0.000       0.000       0.000    
   2   2.1000E-09  2.0000E-09  8.0000E-10  8.5000E-09   0.000       0.000       0.000       0.000       0.000       0.000    
   3   5.0000E-10  1.1000E-09  8.8000E-09  5.5000E-09   0.000       0.000       0.000       0.000       0.000       0.000    
   4   8.5000E-09  1.1000E-09  1.1000E-09  1.1000E-09  2.0000E-09   0.000       0.000       0.000       0.000       0.000    
   5   8.5000E-09  1.1000E-09  1.1000E-09  1.1000E-09  1.1000E-09   0.000       0.000       0.000       0.000       0.000    
   6   8.5000E-09  5.2000E-09  2.1000E-09  1.1000E-09  1.5000E-09   0.000       0.000       0.000       0.000       0.000    
   7   8.5000E-09  5.2000E-09  2.1000E-09  1.2000E-09  2.0000E-09   0.000       0.000       0.000       0.000       0.000    
   8   5.0000E-10  5.2000E-09  2.1000E-09  1.2000E-09  5.0000E-09   0.000       0.000       0.000       0.000       0.000    
   9   5.0000E-10  5.2000E-09  2.1000E-09  1.2000E-09  5.0000E-09   0.000       0.000       0.000       0.000       0.000    
  10   5.0000E-10  5.2000E-09  2.1000E-09  1.2000E-09  5.8000E-09   0.000       0.000       0.000       0.000       0.000    
  11   1.0000E-10  1.1000E-09  1.1000E-09  1.2000E-09  5.0000E-09   0.000       0.000       0.000       0.000       0.000    
  12   1.1000E-09  1.1000E-09  1.1000E-09  1.1000E-09  2.0000E-09   0.000       0.000       0.000       0.000       0.000    
  13   1.1000E-09  2.2000E-09  2.2000E-09  2.1000E-09  1.0000E-09   0.000       0.000       0.000       0.000       0.000    
  14   2.0000E-10  5.5000E-09  5.5000E-09  5.2000E-09  1.0000E-09   0.000       0.000       0.000       0.000       0.000    
  15    0.000      8.8000E-09  8.8000E-09   0.000       0.000       0.000       0.000       0.000       0.000       0.000    

                  ET RATE =  5.000000E-10

 USING ET EXTINCTION DEPTH FROM PREVIOUS STRESS PERIOD. CURRENT PERIOD IS:      25

 USING EXTINCTION WATER CONTENT FROM PREVIOUS STRESS PERIOD. CURRENT PERIOD IS:      25

 USING AIR ENTRY PRESSURE FROM PREVIOUS STRESS PERIOD. CURRENT PERIOD IS:      25

 USING ROOT PRESSURE HEAD FROM PREVIOUS STRESS PERIOD. CURRENT PERIOD IS:      25

 USING ROOT ACTIVITY FROM PREVIOUS STRESS PERIOD. CURRENT PERIOD IS:      25

 PROCESSING AG STRESS PERIOD DATA

 READING AG STRESS PERIOD DATA

 READING IRRIGATION SEGMENT

 READING IRRIGATION WELL

 READING SUPPLEMENTAL WELL

 END PROCESSING AG STRESS PERIOD DATA OPTIONS
 
 SOLVING FOR HEAD 
                                                   Max.-Head-Change                         Max.-Flux-Residual
  Residual-Control   Outer-Iter.   Inner-Iter.     Column Row Layer    Maximum-Head-Change  Column Row Layer    Maximum-Flux-Residual          L2-NORM 
          0                 1           2             4    7     1       0.1128193972E-01       4    7    1         0.5941216791E+00      0.1282624941E+01
          0                 2           2             4    7     1      -0.1097427896E-02       4    7    1        -0.5941235771E-01      0.1282610679E+00
          0                 3           1             4    7     1       0.7473074501E-04       4    7    1         0.4158865047E-02      0.8978140429E-02

    ------------------------------------------------
       NWT REQUIRED            3 OUTER ITERATIONS 
       AND A TOTAL OF          5 INNER ITERATIONS.
    ------------------------------------------------

 NO OUTPUT CONTROL FOR STRESS PERIOD   25   TIME STEP    1
 
 SOLVING FOR HEAD 
                                                   Max.-Head-Change                         Max.-Flux-Residual
  Residual-Control   Outer-Iter.   Inner-Iter.     Column Row Layer    Maximum-Head-Change  Column Row Layer    Maximum-Flux-Residual          L2-NORM 
          0                 1           2             4    7     1       0.1113216931E-01       4    7    1         0.5861986923E+00      0.1268874156E+01
          0                 2           2             4    7     1      -0.1082859245E-02       4    7    1        -0.5862005400E-01      0.1268851712E+00
          0                 3           1             4    7     1       0.7373867479E-04       4    7    1         0.4103403812E-02      0.8881737628E-02

    ------------------------------------------------
       NWT REQUIRED            3 OUTER ITERATIONS 
       AND A TOTAL OF          5 INNER ITERATIONS.
    ------------------------------------------------

 NO OUTPUT CONTROL FOR STRESS PERIOD   25   TIME STEP    2
 
 SOLVING FOR HEAD 
                                                   Max.-Head-Change                         Max.-Flux-Residual
  Residual-Control   Outer-Iter.   Inner-Iter.     Column Row Layer    Maximum-Head-Change  Column Row Layer    Maximum-Flux-Residual          L2-NORM 
          0                 1           2             4    7     1       0.1098509909E-01       4    7    1         0.5784185086E+00      0.1254789485E+01
          0                 2           2             4    7     1      -0.1068553250E-02       4    7    1        -0.5784203077E-01      0.1254768991E+00
          0                 3           1             4    7     1       0.7276449045E-04       4    7    1         0.4048942214E-02      0.8783182333E-02

    ------------------------------------------------
       NWT REQUIRED            3 OUTER ITERATIONS 
       AND A TOTAL OF          5 INNER ITERATIONS.
    ------------------------------------------------

 NO OUTPUT CONTROL FOR STRESS PERIOD   25   TIME STEP    3
 
 SOLVING FOR HEAD 
                                                   Max.-Head-Change                         Max.-Flux-Residual
  Residual-Control   Outer-Iter.   Inner-Iter.     Column Row Layer    Maximum-Head-Change  Column Row Layer    Maximum-Flux-Residual          L2-NORM 
          0                 1           2             4    7     1       0.1084066150E-01       4    7    1         0.5707783254E+00      0.1240939740E+01
          0                 2           2             4    7     1      -0.1054503342E-02       4    7    1        -0.5707800772E-01      0.1240921158E+00
          0                 3           1             4    7     1       0.7180774396E-04       4    7    1         0.3995460604E-02      0.8686237773E-02

    ------------------------------------------------
       NWT REQUIRED            3 OUTER ITERATIONS 
       AND A TOTAL OF          5 INNER ITERATIONS.
    ------------------------------------------------

 NO OUTPUT CONTROL FOR STRESS PERIOD   25   TIME STEP    4
 
 SOLVING FOR HEAD 
                                                   Max.-Head-Change                         Max.-Flux-Residual
  Residual-Control   Outer-Iter.   Inner-Iter.     Column Row Layer    Maximum-Head-Change  Column Row Layer    Maximum-Flux-Residual          L2-NORM 
          0                 1           2             4    7     1       0.1069853206E-01       4    7    1         0.5632598679E+00      0.1227326873E+01
          0                 2           2             4    7     1      -0.1040677955E-02       4    7    1        -0.5632615735E-01      0.1227312194E+00
          0                 3           1             4    7     1       0.7086628703E-04       4    7    1         0.3942831095E-02      0.8591031557E-02

    ------------------------------------------------
       NWT REQUIRED            3 OUTER ITERATIONS 
       AND A TOTAL OF          5 INNER ITERATIONS.
    ------------------------------------------------

 NO OUTPUT CONTROL FOR STRESS PERIOD   25   TIME STEP    5
 
 SOLVING FOR HEAD 
                                                   Max.-Head-Change                         Max.-Flux-Residual
  Residual-Control   Outer-Iter.   Inner-Iter.     Column Row Layer    Maximum-Head-Change  Column Row Layer    Maximum-Flux-Residual          L2-NORM 
          0                 1           2             4    7     1       0.1055921161E-01       4    7    1         0.5558906295E+00      0.1213971413E+01
          0                 2           2             4    7     1      -0.1027125808E-02       4    7    1        -0.5558922906E-01      0.1213955921E+00
          0                 3           1             4    7     1       0.6994343688E-04       4    7    1         0.3891246139E-02      0.8497548889E-02

    ------------------------------------------------
       NWT REQUIRED            3 OUTER ITERATIONS 
       AND A TOTAL OF          5 INNER ITERATIONS.
    ------------------------------------------------

 NO OUTPUT CONTROL FOR STRESS PERIOD   25   TIME STEP    6
 
 SOLVING FOR HEAD 
                                                   Max.-Head-Change                         Max.-Flux-Residual
  Residual-Control   Outer-Iter.   Inner-Iter.     Column Row Layer    Maximum-Head-Change  Column Row Layer    Maximum-Flux-Residual          L2-NORM 
          0                 1           2             4    7     1       0.1042235839E-01       4    7    1         0.5486522606E+00      0.1200832732E+01
          0                 2           2             4    7     1      -0.1013813658E-02       4    7    1        -0.5486538783E-01      0.1200818121E+00
          0                 3           1             4    7     1       0.6903692973E-04       4    7    1         0.3840577295E-02      0.8405581288E-02

    ------------------------------------------------
       NWT REQUIRED            3 OUTER ITERATIONS 
       AND A TOTAL OF          5 INNER ITERATIONS.
    ------------------------------------------------

 NO OUTPUT CONTROL FOR STRESS PERIOD   25   TIME STEP    7
 
 SOLVING FOR HEAD 
                                                   Max.-Head-Change                         Max.-Flux-Residual
  Residual-Control   Outer-Iter.   Inner-Iter.     Column Row Layer    Maximum-Head-Change  Column Row Layer    Maximum-Flux-Residual          L2-NORM 
          0                 1           2             4    7     1       0.1028764853E-01       4    7    1         0.5415270408E+00      0.1187915078E+01
          0                 2           2             4    7     1      -0.1000709999E-02       4    7    1        -0.5415286165E-01      0.1187901879E+00
          0                 3           1             4    7     1       0.6814461943E-04       4    7    1         0.3790700457E-02      0.8315180551E-02

    ------------------------------------------------
       NWT REQUIRED            3 OUTER ITERATIONS 
       AND A TOTAL OF          5 INNER ITERATIONS.
    ------------------------------------------------

 NO OUTPUT CONTROL FOR STRESS PERIOD   25   TIME STEP    8
 
 SOLVING FOR HEAD 
                                                   Max.-Head-Change                         Max.-Flux-Residual
  Residual-Control   Outer-Iter.   Inner-Iter.     Column Row Layer    Maximum-Head-Change  Column Row Layer    Maximum-Flux-Residual          L2-NORM 
          0                 1           2             4    7     1       0.1015558136E-01       4    7    1         0.5345424974E+00      0.1175223416E+01
          0                 2           2             4    7     1      -0.9878634042E-03       4    7    1        -0.5345440321E-01      0.1175211259E+00
          0                 3           1             4    7     1       0.6726981419E-04       4    7    1         0.3741808377E-02      0.8226347740E-02

    ------------------------------------------------
       NWT REQUIRED            3 OUTER ITERATIONS 
       AND A TOTAL OF          5 INNER ITERATIONS.
    ------------------------------------------------

 NO OUTPUT CONTROL FOR STRESS PERIOD   25   TIME STEP    9
 
 SOLVING FOR HEAD 
                                                   Max.-Head-Change                         Max.-Flux-Residual
  Residual-Control   Outer-Iter.   Inner-Iter.     Column Row Layer    Maximum-Head-Change  Column Row Layer    Maximum-Flux-Residual          L2-NORM 
          0                 1           2             4    7     1       0.1002582344E-01       4    7    1         0.5276802003E+00      0.1162740507E+01
          0                 2           2             4    7     1      -0.9752414393E-03       4    7    1        -0.5276816954E-01      0.1162731553E+00
          0                 3           1             4    7     1       0.6641030609E-04       4    7    1         0.3693772060E-02      0.8139274665E-02

    ------------------------------------------------
       NWT REQUIRED            3 OUTER ITERATIONS 
       AND A TOTAL OF          5 INNER ITERATIONS.
    ------------------------------------------------

 NO OUTPUT CONTROL FOR STRESS PERIOD   25   TIME STEP   10
 
 SOLVING FOR HEAD 
                                                   Max.-Head-Change                         Max.-Flux-Residual
  Residual-Control   Outer-Iter.   Inner-Iter.     Column Row Layer    Maximum-Head-Change  Column Row Layer    Maximum-Flux-Residual          L2-NORM 
          0                 1           2             4    7     1       0.9898053958E-02       4    7    1         0.5209228602E+00      0.1150464949E+01
          0                 2           2             4    7     1      -0.9628128946E-03       4    7    1        -0.5209243163E-01      0.1150454827E+00
          0                 3           1             4    7     1       0.6556396839E-04       4    7    1         0.3646470401E-02      0.8053108916E-02

    ------------------------------------------------
       NWT REQUIRED            3 OUTER ITERATIONS 
       AND A TOTAL OF          5 INNER ITERATIONS.
    ------------------------------------------------

 NO OUTPUT CONTROL FOR STRESS PERIOD   25   TIME STEP   11
 
 SOLVING FOR HEAD 
                                                   Max.-Head-Change                         Max.-Flux-Residual
  Residual-Control   Outer-Iter.   Inner-Iter.     Column Row Layer    Maximum-Head-Change  Column Row Layer    Maximum-Flux-Residual          L2-NORM 
          0                 1           2             4    7     1       0.9772773216E-02       4    7    1         0.5142981664E+00      0.1138394666E+01
          0                 2           2             4    7     1      -0.9506264394E-03       4    7    1        -0.5142995850E-01      0.1138384886E+00
          0                 3           1             4    7     1       0.6473411688E-04       4    7    1         0.3600097297E-02      0.7968603384E-02

    ------------------------------------------------
       NWT REQUIRED            3 OUTER ITERATIONS 
       AND A TOTAL OF          5 INNER ITERATIONS.
    ------------------------------------------------

 NO OUTPUT CONTROL FOR STRESS PERIOD   25   TIME STEP   12
 
 SOLVING FOR HEAD 
                                                   Max.-Head-Change                         Max.-Flux-Residual
  Residual-Control   Outer-Iter.   Inner-Iter.     Column Row Layer    Maximum-Head-Change  Column Row Layer    Maximum-Flux-Residual          L2-NORM 
          0                 1           2             4    7     1       0.9649652733E-02       4    7    1         0.5077877354E+00      0.1126520322E+01
          0                 2           2             4    7     1      -0.9386467672E-03       4    7    1        -0.5077891177E-01      0.1126533004E+00
          0                 3           1             4    7     1       0.6391508440E-04       4    7    1         0.3554524056E-02      0.7880674533E-02

    ------------------------------------------------
       NWT REQUIRED            3 OUTER ITERATIONS 
       AND A TOTAL OF          5 INNER ITERATIONS.
    ------------------------------------------------

 NO OUTPUT CONTROL FOR STRESS PERIOD   25   TIME STEP   13
 
 SOLVING FOR HEAD 
                                                   Max.-Head-Change                         Max.-Flux-Residual
  Residual-Control   Outer-Iter.   Inner-Iter.     Column Row Layer    Maximum-Head-Change  Column Row Layer    Maximum-Flux-Residual          L2-NORM 
          0                 1           2             4    7     1       0.9528648579E-02       4    7    1         0.5013893030E+00      0.1114853486E+01
          0                 2           2             4    7     1      -0.9269250737E-03       4    7    1        -0.5013906498E-01      0.1115523629E+00
          0                 3           1             4    7     1       0.6312014291E-04       4    7    1         0.3509734796E-02      0.7808573144E-02

    ------------------------------------------------
       NWT REQUIRED            3 OUTER ITERATIONS 
       AND A TOTAL OF          5 INNER ITERATIONS.
    ------------------------------------------------

 NO OUTPUT CONTROL FOR STRESS PERIOD   25   TIME STEP   14
 
 SOLVING FOR HEAD 
                                                   Max.-Head-Change                         Max.-Flux-Residual
  Residual-Control   Outer-Iter.   Inner-Iter.     Column Row Layer    Maximum-Head-Change  Column Row Layer    Maximum-Flux-Residual          L2-NORM 
          0                 1           2             4    7     1       0.9409568636E-02       4    7    1         0.4950982012E+00      0.1103303057E+01
          0                 2           2             4    7     1      -0.9152963879E-03       4    7    1        -0.4950995146E-01      0.1103295054E+00
          0                 3           1             4    7     1       0.6232827272E-04       4    7    1         0.3465696847E-02      0.7722992521E-02

    ------------------------------------------------
       NWT REQUIRED            3 OUTER ITERATIONS 
       AND A TOTAL OF          5 INNER ITERATIONS.
    ------------------------------------------------

 NO OUTPUT CONTROL FOR STRESS PERIOD   25   TIME STEP   15
 
 SOLVING FOR HEAD 
                                                   Max.-Head-Change                         Max.-Flux-Residual
  Residual-Control   Outer-Iter.   Inner-Iter.     Column Row Layer    Maximum-Head-Change  Column Row Layer    Maximum-Flux-Residual          L2-NORM 
          0                 1           2             4    7     1       0.9292519923E-02       4    7    1         0.4889116842E+00      0.1091941288E+01
          0                 2           2             4    7     1      -0.9039106908E-03       4    7    1        -0.4889129647E-01      0.1091933742E+00
          0                 3           1             4    7     1       0.6155294930E-04       4    7    1         0.3422391010E-02      0.7643468660E-02

    ------------------------------------------------
       NWT REQUIRED            3 OUTER ITERATIONS 
       AND A TOTAL OF          5 INNER ITERATIONS.
    ------------------------------------------------

 NO OUTPUT CONTROL FOR STRESS PERIOD   25   TIME STEP   16
 
 SOLVING FOR HEAD 
                                                   Max.-Head-Change                         Max.-Flux-Residual
  Residual-Control   Outer-Iter.   Inner-Iter.     Column Row Layer    Maximum-Head-Change  Column Row Layer    Maximum-Flux-Residual          L2-NORM 
          0                 1           2             4    7     1       0.9177413914E-02       4    7    1         0.4828280711E+00      0.1080757739E+01
          0                 2           2             4    7     1      -0.8927139674E-03       4    7    1        -0.4828293195E-01      0.1080750289E+00
          0                 3           1             4    7     1       0.6079049500E-04       4    7    1         0.3379805520E-02      0.7565180194E-02

    ------------------------------------------------
       NWT REQUIRED            3 OUTER ITERATIONS 
       AND A TOTAL OF          5 INNER ITERATIONS.
    ------------------------------------------------

 NO OUTPUT CONTROL FOR STRESS PERIOD   25   TIME STEP   17
 
 SOLVING FOR HEAD 
                                                   Max.-Head-Change                         Max.-Flux-Residual
  Residual-Control   Outer-Iter.   Inner-Iter.     Column Row Layer    Maximum-Head-Change  Column Row Layer    Maximum-Flux-Residual          L2-NORM 
          0                 1           2             4    7     1       0.9064216420E-02       4    7    1         0.4768451843E+00      0.1069764149E+01
          0                 2           2             4    7     1      -0.8817028916E-03       4    7    1        -0.4768464014E-01      0.1069756862E+00
          0                 3           1             4    7     1       0.6004068165E-04       4    7    1         0.3337925093E-02      0.7488191290E-02

    ------------------------------------------------
       NWT REQUIRED            3 OUTER ITERATIONS 
       AND A TOTAL OF          5 INNER ITERATIONS.
    ------------------------------------------------

 NO OUTPUT CONTROL FOR STRESS PERIOD   25   TIME STEP   18
 
 SOLVING FOR HEAD 
                                                   Max.-Head-Change                         Max.-Flux-Residual
  Residual-Control   Outer-Iter.   Inner-Iter.     Column Row Layer    Maximum-Head-Change  Column Row Layer    Maximum-Flux-Residual          L2-NORM 
          0                 1           2             4    7     1       0.8953160858E-02       4    7    1         0.4709760282E+00      0.1058952419E+01
          0                 2           2             4    7     1      -0.8709001687E-03       4    7    1        -0.4709772149E-01      0.1058946061E+00
          0                 3           1             4    7     1       0.5930505733E-04       4    7    1         0.3296840824E-02      0.7412597726E-02

    ------------------------------------------------
       NWT REQUIRED            3 OUTER ITERATIONS 
       AND A TOTAL OF          5 INNER ITERATIONS.
    ------------------------------------------------

 NO OUTPUT CONTROL FOR STRESS PERIOD   25   TIME STEP   19
 
 SOLVING FOR HEAD 
                                                   Max.-Head-Change                         Max.-Flux-Residual
  Residual-Control   Outer-Iter.   Inner-Iter.     Column Row Layer    Maximum-Head-Change  Column Row Layer    Maximum-Flux-Residual          L2-NORM 
          0                 1           2             4    7     1       0.8843922502E-02       4    7    1         0.4652031515E+00      0.1048305708E+01
          0                 2           2             4    7     1      -0.8602742115E-03       4    7    1        -0.4652043088E-01      0.1048299291E+00
          0                 3           1             4    7     1       0.5858146904E-04       4    7    1         0.3256430477E-02      0.7338030468E-02

    ------------------------------------------------
       NWT REQUIRED            3 OUTER ITERATIONS 
       AND A TOTAL OF          5 INNER ITERATIONS.
    ------------------------------------------------

 NO OUTPUT CONTROL FOR STRESS PERIOD   25   TIME STEP   20
 
 SOLVING FOR HEAD 
                                                   Max.-Head-Change                         Max.-Flux-Residual
  Residual-Control   Outer-Iter.   Inner-Iter.     Column Row Layer    Maximum-Head-Change  Column Row Layer    Maximum-Flux-Residual          L2-NORM 
          0                 1           2             4    7     1       0.8736191826E-02       4    7    1         0.4595097167E+00      0.1037818128E+01
          0                 2           2             4    7     1      -0.8497949116E-03       4    7    1        -0.4595108451E-01      0.1037813276E+00
          0                 3           1             4    7     1       0.5786786789E-04       4    7    1         0.3216576238E-02      0.7264798784E-02

    ------------------------------------------------
       NWT REQUIRED            3 OUTER ITERATIONS 
       AND A TOTAL OF          5 INNER ITERATIONS.
    ------------------------------------------------

 NO OUTPUT CONTROL FOR STRESS PERIOD   25   TIME STEP   21
 
 SOLVING FOR HEAD 
                                                   Max.-Head-Change                         Max.-Flux-Residual
  Residual-Control   Outer-Iter.   Inner-Iter.     Column Row Layer    Maximum-Head-Change  Column Row Layer    Maximum-Flux-Residual          L2-NORM 
          0                 1           2             4    7     1       0.8630762699E-02       4    7    1         0.4539387857E+00      0.1027512135E+01
          0                 2           2             4    7     1      -0.8395394912E-03       4    7    1        -0.4539398862E-01      0.1027506227E+00
          0                 3           1             4    7     1       0.5716951204E-04       4    7    1         0.3177579537E-02      0.7192479932E-02

    ------------------------------------------------
       NWT REQUIRED            3 OUTER ITERATIONS 
       AND A TOTAL OF          5 INNER ITERATIONS.
    ------------------------------------------------

 NO OUTPUT CONTROL FOR STRESS PERIOD   25   TIME STEP   22
 
 SOLVING FOR HEAD 
                                                   Max.-Head-Change                         Max.-Flux-Residual
  Residual-Control   Outer-Iter.   Inner-Iter.     Column Row Layer    Maximum-Head-Change  Column Row Layer    Maximum-Flux-Residual          L2-NORM 
          0                 1           2             4    7     1       0.8526763766E-02       4    7    1         0.4484428535E+00      0.1017357988E+01
          0                 2           2             4    7     1      -0.8294231907E-03       4    7    1        -0.4484439268E-01      0.1017351976E+00
          0                 3           1             4    7     1       0.5648063022E-04       4    7    1         0.3139107844E-02      0.7121372105E-02

    ------------------------------------------------
       NWT REQUIRED            3 OUTER ITERATIONS 
       AND A TOTAL OF          5 INNER ITERATIONS.
    ------------------------------------------------

 NO OUTPUT CONTROL FOR STRESS PERIOD   25   TIME STEP   23
 
 SOLVING FOR HEAD 
                                                   Max.-Head-Change                         Max.-Flux-Residual
  Residual-Control   Outer-Iter.   Inner-Iter.     Column Row Layer    Maximum-Head-Change  Column Row Layer    Maximum-Flux-Residual          L2-NORM 
          0                 1           2             4    7     1       0.8424437179E-02       4    7    1         0.4430358526E+00      0.1007360223E+01
          0                 2           2             4    7     1      -0.8194695640E-03       4    7    1        -0.4430368991E-01      0.1007354681E+00
          0                 3           1             4    7     1       0.5580282519E-04       4    7    1         0.3101258641E-02      0.7051444844E-02

    ------------------------------------------------
       NWT REQUIRED            3 OUTER ITERATIONS 
       AND A TOTAL OF          5 INNER ITERATIONS.
    ------------------------------------------------

 NO OUTPUT CONTROL FOR STRESS PERIOD   25   TIME STEP   24
 
 SOLVING FOR HEAD 
                                                   Max.-Head-Change                         Max.-Flux-Residual
  Residual-Control   Outer-Iter.   Inner-Iter.     Column Row Layer    Maximum-Head-Change  Column Row Layer    Maximum-Flux-Residual          L2-NORM 
          0                 1           2             4    7     1       0.8324032464E-02       4    7    1         0.4377303389E+00      0.9975325863E+00
          0                 2           2             4    7     1      -0.8097028853E-03       4    7    1        -0.4377313599E-01      0.9975270798E-01
          0                 3           1             4    7     1       0.5513775105E-04       4    7    1         0.3064119880E-02      0.6982623221E-02

    ------------------------------------------------
       NWT REQUIRED            3 OUTER ITERATIONS 
       AND A TOTAL OF          5 INNER ITERATIONS.
    ------------------------------------------------

 NO OUTPUT CONTROL FOR STRESS PERIOD   25   TIME STEP   25
 
 SOLVING FOR HEAD 
                                                   Max.-Head-Change                         Max.-Flux-Residual
  Residual-Control   Outer-Iter.   Inner-Iter.     Column Row Layer    Maximum-Head-Change  Column Row Layer    Maximum-Flux-Residual          L2-NORM 
          0                 1           2             4    7     1       0.8225219332E-02       4    7    1         0.4325096931E+00      0.9878371944E+00
          0                 2           2             4    7     1      -0.8000910247E-03       4    7    1        -0.4325106890E-01      0.9878317272E-01
          0                 3           1             4    7     1       0.5448321928E-04       4    7    1         0.3027575189E-02      0.6914776726E-02

    ------------------------------------------------
       NWT REQUIRED            3 OUTER ITERATIONS 
       AND A TOTAL OF          5 INNER ITERATIONS.
    ------------------------------------------------

 NO OUTPUT CONTROL FOR STRESS PERIOD   25   TIME STEP   26
 
 SOLVING FOR HEAD 
                                                   Max.-Head-Change                         Max.-Flux-Residual
  Residual-Control   Outer-Iter.   Inner-Iter.     Column Row Layer    Maximum-Head-Change  Column Row Layer    Maximum-Flux-Residual          L2-NORM 
          0                 1           2             4    7     1       0.8127975256E-02       4    7    1         0.4273715685E+00      0.9783057068E+00
          0                 2           2             4    7     1      -0.7906317916E-03       4    7    1        -0.4273725398E-01      0.9783005632E-01
          0                 3           1             4    7     1       0.5383908126E-04       4    7    1         0.2991608163E-02      0.6848058197E-02

    ------------------------------------------------
       NWT REQUIRED            3 OUTER ITERATIONS 
       AND A TOTAL OF          5 INNER ITERATIONS.
    ------------------------------------------------

 NO OUTPUT CONTROL FOR STRESS PERIOD   25   TIME STEP   27
 
 SOLVING FOR HEAD 
                                                   Max.-Head-Change                         Max.-Flux-Residual
  Residual-Control   Outer-Iter.   Inner-Iter.     Column Row Layer    Maximum-Head-Change  Column Row Layer    Maximum-Flux-Residual          L2-NORM 
          0                 1           2             4    7     1       0.8032538804E-02       4    7    1         0.4223295765E+00      0.9689240263E+00
          0                 2           2             4    7     1      -0.7813483912E-03       4    7    1        -0.4223305237E-01      0.9689189677E-01
          0                 3           1             4    7     1       0.5320691606E-04       4    7    1         0.2956314047E-02      0.6782400846E-02

    ------------------------------------------------
       NWT REQUIRED            3 OUTER ITERATIONS 
       AND A TOTAL OF          5 INNER ITERATIONS.
    ------------------------------------------------

 NO OUTPUT CONTROL FOR STRESS PERIOD   25   TIME STEP   28
 
 SOLVING FOR HEAD 
                                                   Max.-Head-Change                         Max.-Flux-Residual
  Residual-Control   Outer-Iter.   Inner-Iter.     Column Row Layer    Maximum-Head-Change  Column Row Layer    Maximum-Flux-Residual          L2-NORM 
          0                 1           2             4    7     1       0.7938596302E-02       4    7    1         0.4173665281E+00      0.9596742802E+00
          0                 2           2             4    7     1      -0.7722103136E-03       4    7    1        -0.4173674525E-01      0.9596693046E-01
          0                 3           1             4    7     1       0.5258464689E-04       4    7    1         0.2921572554E-02      0.6717640823E-02

    ------------------------------------------------
       NWT REQUIRED            3 OUTER ITERATIONS 
       AND A TOTAL OF          5 INNER ITERATIONS.
    ------------------------------------------------

 NO OUTPUT CONTROL FOR STRESS PERIOD   25   TIME STEP   29
 
 SOLVING FOR HEAD 
                                                   Max.-Head-Change                         Max.-Flux-Residual
  Residual-Control   Outer-Iter.   Inner-Iter.     Column Row Layer    Maximum-Head-Change  Column Row Layer    Maximum-Flux-Residual          L2-NORM 
          0                 1           2             4    7     1       0.7846116465E-02       4    7    1         0.4124809387E+00      0.9507143074E+00
          0                 2           2             4    7     1      -0.7632145137E-03       4    7    1        -0.4124818405E-01      0.9507073512E-01
          0                 3           1             4    7     1       0.5197206664E-04       4    7    1         0.2887373267E-02      0.6654862082E-02

    ------------------------------------------------
       NWT REQUIRED            3 OUTER ITERATIONS 
       AND A TOTAL OF          5 INNER ITERATIONS.
    ------------------------------------------------

 NO OUTPUT CONTROL FOR STRESS PERIOD   25   TIME STEP   30



 STREAM LISTING     PERIOD     25   STEP       30

 LAYER ROW COL. STREAM  RCH.  FLOW INTO     FLOW TO   FLOW OUT OF   OVRLND.     DIRECT     STREAM       STREAM     STREAM     STREAM   STREAMBED  STREAMBED
                SEG.NO.  NO.  STRM. RCH.    AQUIFER    STRM. RCH.    RUNOFF     PRECIP       ET          HEAD       DEPTH      WIDTH   CONDCTNC.   GRADIENT

   1    1    1     1     1    1.4942E+01  1.8668E-01   1.4756E+01  0.000E+00  0.000E+00  0.000E+00  1.09406E+03  1.009E+00  1.035E+01  4.656E-02  1.336E+00
   1    2    2     1     2    1.4756E+01  2.8774E-01   1.4468E+01  0.000E+00  0.000E+00  0.000E+00  1.08906E+03  1.004E+00  1.027E+01  7.186E-02  1.335E+00
   1    3    3     1     3    1.4468E+01  2.4407E-01   1.4224E+01  0.000E+00  0.000E+00  0.000E+00  1.08342E+03  9.991E-01  1.017E+01  6.103E-02  1.333E+00
   1    3    4     1     4    1.4224E+01  2.2366E-01   1.4000E+01  0.000E+00  0.000E+00  0.000E+00  1.07840E+03  9.944E-01  1.009E+01  5.599E-02  1.331E+00
   1    4    5     2     1    1.2000E+01  2.9419E-01   1.1706E+01  0.000E+00  0.000E+00  0.000E+00  1.07271E+03  7.717E-01  1.200E+01  7.800E-02  1.257E+00
   1    5    6     2     2    1.1706E+01  2.2569E-01   1.1480E+01  0.000E+00  0.000E+00  0.000E+00  1.06727E+03  7.615E-01  1.200E+01  6.000E-02  1.254E+00
   1    6    6     2     3    1.1480E+01  2.2515E-01   1.1255E+01  0.000E+00  0.000E+00  0.000E+00  1.06255E+03  7.526E-01  1.200E+01  6.000E-02  1.251E+00
   1    7    6     2     4    1.1255E+01  2.2462E-01   1.1031E+01  0.000E+00  0.000E+00  0.000E+00  1.05782E+03  7.436E-01  1.200E+01  6.000E-02  1.248E+00
   1    8    6     2     5    1.1031E+01  2.2408E-01   1.0807E+01  0.000E+00  0.000E+00  0.000E+00  1.05309E+03  7.346E-01  1.200E+01  6.000E-02  1.245E+00
   1    3    5     3     1    2.0000E+00  2.8252E-01   1.7175E+00  0.000E+00  0.000E+00  0.000E+00  1.07555E+03  1.909E+00  9.636E+00  7.227E-02  1.955E+00
   1    3    6     3     2    1.7175E+00  2.4905E-01   1.4684E+00  0.000E+00  0.000E+00  0.000E+00  1.07264E+03  1.727E+00  8.909E+00  6.682E-02  1.864E+00
   1    3    7     3     3    1.4684E+00  1.9718E-01   1.2712E+00  0.000E+00  0.000E+00  0.000E+00  1.06987E+03  1.555E+00  8.218E+00  5.547E-02  1.777E+00
   1    4    8     3     4    1.2712E+00  2.2567E-01   1.0456E+00  0.000E+00  0.000E+00  0.000E+00  1.06682E+03  1.364E+00  7.455E+00  6.709E-02  1.682E+00
   1    5    8     3     5    1.0456E+00  1.5790E-01   8.8768E-01  0.000E+00  0.000E+00  0.000E+00  1.06362E+03  1.164E+00  6.655E+00  4.991E-02  1.582E+00
   1    6    8     3     6    8.8768E-01  5.5980E-02   8.3170E-01  0.000E+00  0.000E+00  0.000E+00  1.06158E+03  1.036E+00  6.145E+00  1.844E-02  1.518E+00
   1    5   10     4     1    1.0000E+01  9.0919E-02   9.9091E+00  0.000E+00  0.000E+00  0.000E+00  1.07836E+03  6.368E-01  1.000E+01  2.500E-02  1.212E+00
   1    5    9     4     2    9.9091E+00  1.8158E-01   9.7275E+00  0.000E+00  0.000E+00  0.000E+00  1.07154E+03  6.315E-01  1.000E+01  5.000E-02  1.211E+00
   1    6    8     4     3    9.7275E+00  1.2689E-01   9.6006E+00  0.000E+00  0.000E+00  0.000E+00  1.06381E+03  6.256E-01  1.000E+01  3.500E-02  1.209E+00
   1    6    8     5     1    1.0432E+01  2.2686E-01   1.0205E+01  0.000E+00  0.000E+00  0.000E+00  1.05868E+03  6.790E-01  1.542E+01  6.166E-02  1.226E+00
   1    7    7     5     2    1.0205E+01  2.7894E-01   9.9265E+00  0.000E+00  0.000E+00  0.000E+00  1.05417E+03  6.732E-01  1.519E+01  7.594E-02  1.224E+00
   1    8    7     5     3    9.9265E+00  1.9221E-01   9.7343E+00  0.000E+00  0.000E+00  0.000E+00  1.04992E+03  6.676E-01  1.497E+01  5.241E-02  1.223E+00
   1    8    6     5     4    9.7343E+00  1.3577E-01   9.5985E+00  0.000E+00  0.000E+00  0.000E+00  1.04691E+03  6.637E-01  1.482E+01  3.706E-02  1.221E+00
   1    9    6     6     1    2.0405E+01  2.4462E-01   2.0161E+01  0.000E+00  0.000E+00  0.000E+00  1.04380E+03  1.077E+00  1.200E+01  6.000E-02  1.359E+00
   1   10    7     6     2    2.0161E+01  2.4416E-01   1.9916E+01  0.000E+00  0.000E+00  0.000E+00  1.03925E+03  1.069E+00  1.200E+01  6.000E-02  1.356E+00
   1   11    7     6     3    1.9916E+01  2.4369E-01   1.9673E+01  0.000E+00  0.000E+00  0.000E+00  1.03470E+03  1.061E+00  1.200E+01  6.000E-02  1.354E+00
   1   12    7     6     4    1.9673E+01  2.4322E-01   1.9429E+01  0.000E+00  0.000E+00  0.000E+00  1.03014E+03  1.054E+00  1.200E+01  6.000E-02  1.351E+00
   1   13    7     6     5    1.9429E+01 -3.0465E-02   1.9460E+01  0.000E+00  0.000E+00  0.000E+00  1.02696E+03  1.050E+00  1.200E+01  2.400E-01 -4.231E-02
   1   14    9     7     1    1.5000E+02  1.3371E+00   1.4866E+02  0.000E+00  0.000E+00  0.000E+00  1.03987E+03  2.288E+00  5.529E+01  5.593E-01  7.969E-01
   1   13    8     7     2    1.4866E+02  1.8306E+00   1.4683E+02  0.000E+00  0.000E+00  0.000E+00  1.03478E+03  2.279E+00  5.526E+01  6.148E-01  9.926E-01
   1   13    7     7     3    1.4683E+02  1.4540E+00   1.4538E+02  0.000E+00  0.000E+00  0.000E+00  1.02969E+03  2.271E+00  5.522E+01  5.585E-01  8.679E-01
   1   13    6     8     1    1.6484E+02  8.7491E-01   1.6396E+02  0.000E+00  0.000E+00  0.000E+00  1.02479E+03  2.915E+00  4.227E+01  4.308E-01  6.770E-01
   1   13    5     8     2    1.6396E+02  1.3507E-01   1.6383E+02  0.000E+00  0.000E+00  0.000E+00  1.01854E+03  2.912E+00  4.222E+01  4.303E-01  1.046E-01
   1   13    4     8     3    1.6383E+02 -2.5713E+00   1.6640E+02  0.000E+00  0.000E+00  0.000E+00  1.01230E+03  2.920E+00  4.234E+01  4.315E+00 -1.986E-01
   1   13    3     8     4    1.6640E+02 -3.7090E+00   1.7011E+02  0.000E+00  0.000E+00  0.000E+00  1.00607E+03  2.941E+00  4.264E+01  4.345E+00 -2.845E-01
   1   13    2     8     5    1.7011E+02 -2.5902E+00   1.7270E+02  0.000E+00  0.000E+00  0.000E+00  9.99836E+02  2.961E+00  4.294E+01  4.376E+00 -1.973E-01
   1   13    1     8     6    1.7270E+02 -1.9825E+00   1.7468E+02  0.000E+00  0.000E+00  0.000E+00  9.94851E+02  2.976E+00  4.315E+01  2.638E+00 -2.505E-01
   1    8    6     9     1    0.0000E+00  0.0000E+00   0.0000E+00  0.000E+00  0.000E+00  0.000E+00  1.07875E+03  0.000E+00  4.000E+00  0.000E+00  1.000E+00
   1    8    5     9     2    0.0000E+00  0.0000E+00   0.0000E+00  0.000E+00  0.000E+00  0.000E+00  1.07825E+03  0.000E+00  4.000E+00  0.000E+00  1.000E+00





UNSATURATED ZONE PACKAGE VOLUMETRIC BUDGET FOR  TIME STEP    30 STRESS PERIOD   25
  ------------------------------------------------------------------------------



     CUMULATIVE VOLUMES      L**3       RATES FOR THIS TIME STEP      L**3/T
     ------------------                 ------------------------

           IN:                                      IN:
           ---                                      ---
        INFILTRATION =  1077049593.7615          INFILTRATION =           4.4075

          OUT:                                     OUT:
          ----                                     ----
              UZF ET =   997456378.7672                UZF ET =           0.7250
        UZF RECHARGE =      654716.9165          UZF RECHARGE =       0.0000E+00

            IN - OUT =    78938498.0778              IN - OUT =           3.6825

          STORAGE:                                 STORAGE:
          --------                                 --------
      STORAGE CHANGE =    78939088.5652        STORAGE CHANGE =           3.6825

 PERCENT DISCREPANCY IS DIFFERENCE BETWEEN IN-OUT MINUS CHANGE IN STORAGE
 DIVIDED BY THE AVERAGE OF IN AND OUT TIMES 100

 PERCENT DISCREPANCY =          -0.00     PERCENT DISCREPANCY =           0.00






1
  VOLUMETRIC BUDGET FOR AGRICULTURAL FIELDS AT TIME STEP   30, STRESS PERIOD  25
  ------------------------------------------------------------------------------

     CUMULATIVE VOLUMES      L**3       RATES FOR THIS TIME STEP      L**3/T
     ------------------                 ------------------------

           IN:                                      IN:
           ---                                      ---
               AG WELLS  =   175546176.0000                 AG WELLS  =           0.0000
      DIVERSION SEGMENTS =   623216576.0000        DIVERSION SEGMENTS =           0.0000
           GW IRRIGATION =           0.0000             GW IRRIGATION =           0.0000
           SW IRRIGATION =           0.0000             SW IRRIGATION =           0.0000
        SYSTEM LOSSES GW =           0.0000          SYSTEM LOSSES GW =           0.0000
        SYSTEM LOSSES SW =           0.0000          SYSTEM LOSSES SW =           0.0000

                TOTAL IN =   798762752.0000                  TOTAL IN =           0.0000

          OUT:                                     OUT:
          ----                                     ----
               AG WELLS  =           0.0000                 AG WELLS  =           0.0000
      DIVERSION SEGMENTS =           0.0000        DIVERSION SEGMENTS =           0.0000
           GW IRRIGATION =   175546176.0000             GW IRRIGATION =           0.0000
           SW IRRIGATION =   623229888.0000             SW IRRIGATION =           0.0000
        SYSTEM LOSSES GW =           0.0000          SYSTEM LOSSES GW =           0.0000
        SYSTEM LOSSES SW =           0.0000          SYSTEM LOSSES SW =           0.0000

               TOTAL OUT =   798776064.0000                 TOTAL OUT =           0.0000

                IN - OUT =      -13312.0000                  IN - OUT =           0.0000

     PERCENT DISCREPANCY =          -0.00         PERCENT DISCREPANCY =           0.00



1
  VOLUMETRIC BUDGET FOR ENTIRE MODEL AT END OF TIME STEP   30, STRESS PERIOD  25
  ------------------------------------------------------------------------------

     CUMULATIVE VOLUMES      L**3       RATES FOR THIS TIME STEP      L**3/T
     ------------------                 ------------------------

           IN:                                      IN:
           ---                                      ---
             STORAGE     =   285812832.0000               STORAGE     =           2.7980
       CONSTANT HEAD     =           0.0000         CONSTANT HEAD     =           0.0000
     HEAD DEP BOUNDS     =    18061890.0000       HEAD DEP BOUNDS     =           0.2858
      STREAM LEAKAGE     =   748617920.0000        STREAM LEAKAGE     =          11.1448
        UZF RECHARGE     =      654716.8125          UZF RECHARGE     =           0.0000
               GW ET     =           0.0000                 GW ET     =           0.0000
     SURFACE LEAKAGE     =           0.0000       SURFACE LEAKAGE     =           0.0000
           AG WELLS      =           0.0000             AG WELLS      =           0.0000

                TOTAL IN =  1053147392.0000                  TOTAL IN =          14.2286

          OUT:                                     OUT:
          ----                                     ----
             STORAGE     =   168795136.0000               STORAGE     =           3.0563
       CONSTANT HEAD     =           0.0000         CONSTANT HEAD     =           0.0000
     HEAD DEP BOUNDS     =    18364984.0000       HEAD DEP BOUNDS     =           0.2889
      STREAM LEAKAGE     =   688146304.0000        STREAM LEAKAGE     =          10.8835
        UZF RECHARGE     =           0.0000          UZF RECHARGE     =           0.0000
               GW ET     =     2260364.5000                 GW ET     =           0.0000
     SURFACE LEAKAGE     =           0.0000       SURFACE LEAKAGE     =           0.0000
           AG WELLS      =   175546176.0000             AG WELLS      =           0.0000

               TOTAL OUT =  1053112960.0000                 TOTAL OUT =          14.2287

                IN - OUT =       34432.0000                  IN - OUT =      -7.0572E-05

     PERCENT DISCREPANCY =           0.00         PERCENT DISCREPANCY =          -0.00






         TIME SUMMARY AT END OF TIME STEP   30 IN STRESS PERIOD   25
                    SECONDS     MINUTES      HOURS       DAYS        YEARS
                    -----------------------------------------------------------
   TIME STEP LENGTH  87667.      1461.1      24.352      1.0147     2.77799E-03
 STRESS PERIOD TIME 2.63000E+06  43833.      730.56      30.440     8.33397E-02
         TOTAL TIME 6.32067E+07 1.05345E+06  17557.      731.56      2.0029    
1
1
                            STRESS PERIOD NO.   26, LENGTH =   2630000.    
                            -----------------------------------------------

                              NUMBER OF TIME STEPS =    30

                               MULTIPLIER FOR DELT =     1.000

                            INITIAL TIME STEP SIZE =   87666.66    

 REUSING NON-PARAMETER GHB CELLS FROM LAST STRESS PERIOD

      2 GHB CELLS

 REUSING STREAM SEGMENT DATA FROM LAST STRESS PERIOD



            AREAL INFILTRATION RATE
 READING ON UNIT   19 WITH FORMAT: (10F4.0)            

            1           2           3           4           5           6           7           8           9          10
 ........................................................................................................................
   1   1.2000E-09   0.000       0.000       0.000       0.000       0.000       0.000       0.000       0.000       0.000    
   2   2.1000E-09  2.0000E-09  8.0000E-10  8.5000E-09   0.000       0.000       0.000       0.000       0.000       0.000    
   3   5.0000E-10  1.1000E-09  8.8000E-09  5.5000E-09   0.000       0.000       0.000       0.000       0.000       0.000    
   4   8.5000E-09  1.1000E-09  1.1000E-09  1.1000E-09  2.0000E-09   0.000       0.000       0.000       0.000       0.000    
   5   8.5000E-09  1.1000E-09  1.1000E-09  1.1000E-09  1.1000E-09   0.000       0.000       0.000       0.000       0.000    
   6   8.5000E-09  5.2000E-09  2.1000E-09  1.1000E-09  1.5000E-09   0.000       0.000       0.000       0.000       0.000    
   7   8.5000E-09  5.2000E-09  2.1000E-09  1.2000E-09  2.0000E-09   0.000       0.000       0.000       0.000       0.000    
   8   5.0000E-10  5.2000E-09  2.1000E-09  1.2000E-09  5.0000E-09   0.000       0.000       0.000       0.000       0.000    
   9   5.0000E-10  5.2000E-09  2.1000E-09  1.2000E-09  5.0000E-09   0.000       0.000       0.000       0.000       0.000    
  10   5.0000E-10  5.2000E-09  2.1000E-09  1.2000E-09  5.8000E-09   0.000       0.000       0.000       0.000       0.000    
  11   1.0000E-10  1.1000E-09  1.1000E-09  1.2000E-09  5.0000E-09   0.000       0.000       0.000       0.000       0.000    
  12   1.1000E-09  1.1000E-09  1.1000E-09  1.1000E-09  2.0000E-09   0.000       0.000       0.000       0.000       0.000    
  13   1.1000E-09  2.2000E-09  2.2000E-09  2.1000E-09  1.0000E-09   0.000       0.000       0.000       0.000       0.000    
  14   2.0000E-10  5.5000E-09  5.5000E-09  5.2000E-09  1.0000E-09   0.000       0.000       0.000       0.000       0.000    
  15    0.000      8.8000E-09  8.8000E-09   0.000       0.000       0.000       0.000       0.000       0.000       0.000    

                  ET RATE =  5.000000E-10

 USING ET EXTINCTION DEPTH FROM PREVIOUS STRESS PERIOD. CURRENT PERIOD IS:      26

 USING EXTINCTION WATER CONTENT FROM PREVIOUS STRESS PERIOD. CURRENT PERIOD IS:      26

 USING AIR ENTRY PRESSURE FROM PREVIOUS STRESS PERIOD. CURRENT PERIOD IS:      26

 USING ROOT PRESSURE HEAD FROM PREVIOUS STRESS PERIOD. CURRENT PERIOD IS:      26

 USING ROOT ACTIVITY FROM PREVIOUS STRESS PERIOD. CURRENT PERIOD IS:      26

 PROCESSING AG STRESS PERIOD DATA

 READING AG STRESS PERIOD DATA

 READING IRRIGATION SEGMENT

 READING IRRIGATION WELL

 READING SUPPLEMENTAL WELL

 END PROCESSING AG STRESS PERIOD DATA OPTIONS
 
 SOLVING FOR HEAD 
                                                   Max.-Head-Change                         Max.-Flux-Residual
  Residual-Control   Outer-Iter.   Inner-Iter.     Column Row Layer    Maximum-Head-Change  Column Row Layer    Maximum-Flux-Residual          L2-NORM 
          0                 1           2             4    7     1       0.7755058193E-02       4    7    1         0.4076711863E+00      0.9439828959E+00
          0                 2           2             4    7     1      -0.7543569950E-03       4    7    1        -0.4076720664E-01      0.9439349219E-01
          0                 3           1             4    7     1       0.5136890315E-04       4    7    1         0.2853704873E-02      0.6607090021E-02

    ------------------------------------------------
       NWT REQUIRED            3 OUTER ITERATIONS 
       AND A TOTAL OF          5 INNER ITERATIONS.
    ------------------------------------------------

 NO OUTPUT CONTROL FOR STRESS PERIOD   26   TIME STEP    1
 
 SOLVING FOR HEAD 
                                                   Max.-Head-Change                         Max.-Flux-Residual
  Residual-Control   Outer-Iter.   Inner-Iter.     Column Row Layer    Maximum-Head-Change  Column Row Layer    Maximum-Flux-Residual          L2-NORM 
          0                 1           2             4    7     1       0.7665691339E-02       4    7    1         0.4029499201E+00      0.9312392067E+00
          0                 2           2             4    7     1      -0.7456640051E-03       4    7    1        -0.4029507788E-01      0.9311964921E-01
          0                 3           1             4    7     1       0.5077694307E-04       4    7    1         0.2820655855E-02      0.6517957830E-02

    ------------------------------------------------
       NWT REQUIRED            3 OUTER ITERATIONS 
       AND A TOTAL OF          5 INNER ITERATIONS.
    ------------------------------------------------

 NO OUTPUT CONTROL FOR STRESS PERIOD   26   TIME STEP    2
 
 SOLVING FOR HEAD 
                                                   Max.-Head-Change                         Max.-Flux-Residual
  Residual-Control   Outer-Iter.   Inner-Iter.     Column Row Layer    Maximum-Head-Change  Column Row Layer    Maximum-Flux-Residual          L2-NORM 
          0                 1           2             4    7     1       0.7577705253E-02       4    7    1         0.3983015717E+00      0.9224210029E+00
          0                 2           2             4    7     1      -0.7371053276E-03       4    7    1        -0.3983024096E-01      0.9223743605E-01
          0                 3           1             4    7     1       0.5019412945E-04       4    7    1         0.2788117291E-02      0.6456172325E-02

    ------------------------------------------------
       NWT REQUIRED            3 OUTER ITERATIONS 
       AND A TOTAL OF          5 INNER ITERATIONS.
    ------------------------------------------------

 NO OUTPUT CONTROL FOR STRESS PERIOD   26   TIME STEP    3
 
 SOLVING FOR HEAD 
                                                   Max.-Head-Change                         Max.-Flux-Residual
  Residual-Control   Outer-Iter.   Inner-Iter.     Column Row Layer    Maximum-Head-Change  Column Row Layer    Maximum-Flux-Residual          L2-NORM 
          0                 1           2             4    7     1       0.7491338529E-02       4    7    1         0.3937395949E+00      0.9136780567E+00
          0                 2           2             4    7     1      -0.7287041701E-03       4    7    1        -0.3937404126E-01      0.9136395740E-01
          0                 3           1             4    7     1       0.4962204117E-04       4    7    1         0.2756183294E-02      0.6395083622E-02

    ------------------------------------------------
       NWT REQUIRED            3 OUTER ITERATIONS 
       AND A TOTAL OF          5 INNER ITERATIONS.
    ------------------------------------------------

 NO OUTPUT CONTROL FOR STRESS PERIOD   26   TIME STEP    4
 
 SOLVING FOR HEAD 
                                                   Max.-Head-Change                         Max.-Flux-Residual
  Residual-Control   Outer-Iter.   Inner-Iter.     Column Row Layer    Maximum-Head-Change  Column Row Layer    Maximum-Flux-Residual          L2-NORM 
          0                 1           2             4    7     1       0.7406282270E-02       4    7    1         0.3892467990E+00      0.9051116975E+00
          0                 2           2             4    7     1      -0.7204304863E-03       4    7    1        -0.3892475970E-01      0.9050802081E-01
          0                 3           1             4    7     1       0.4905863452E-04       4    7    1         0.2724733597E-02      0.6335299016E-02

    ------------------------------------------------
       NWT REQUIRED            3 OUTER ITERATIONS 
       AND A TOTAL OF          5 INNER ITERATIONS.
    ------------------------------------------------

 NO OUTPUT CONTROL FOR STRESS PERIOD   26   TIME STEP    5
 
 SOLVING FOR HEAD 
                                                   Max.-Head-Change                         Max.-Flux-Residual
  Residual-Control   Outer-Iter.   Inner-Iter.     Column Row Layer    Maximum-Head-Change  Column Row Layer    Maximum-Flux-Residual          L2-NORM 
          0                 1           2             4    7     1       0.7322512644E-02       4    7    1         0.3848219486E+00      0.8966769703E+00
          0                 2           2             4    7     1      -0.7124226513E-03       4    7    1        -0.3850283446E-01      0.8967210432E-01
          0                 3           1             4    7     1       0.4851332960E-04       4    7    1         0.2695198740E-02      0.6276794834E-02

    ------------------------------------------------
       NWT REQUIRED            3 OUTER ITERATIONS 
       AND A TOTAL OF          5 INNER ITERATIONS.
    ------------------------------------------------

 NO OUTPUT CONTROL FOR STRESS PERIOD   26   TIME STEP    6
 
 SOLVING FOR HEAD 
                                                   Max.-Head-Change                         Max.-Flux-Residual
  Residual-Control   Outer-Iter.   Inner-Iter.     Column Row Layer    Maximum-Head-Change  Column Row Layer    Maximum-Flux-Residual          L2-NORM 
          0                 1           2             4    7     1       0.7237630505E-02       4    7    1         0.3804562715E+00      0.8883822546E+00
          0                 2           2             4    7     1      -0.7040253684E-03       4    7    1        -0.3804571402E-01      0.8883613339E-01
          0                 3           1             4    7     1       0.4794150591E-04       4    7    1         0.2663200300E-02      0.6218328036E-02

    ------------------------------------------------
       NWT REQUIRED            3 OUTER ITERATIONS 
       AND A TOTAL OF          5 INNER ITERATIONS.
    ------------------------------------------------

 NO OUTPUT CONTROL FOR STRESS PERIOD   26   TIME STEP    7
 
 SOLVING FOR HEAD 
                                                   Max.-Head-Change                         Max.-Flux-Residual
  Residual-Control   Outer-Iter.   Inner-Iter.     Column Row Layer    Maximum-Head-Change  Column Row Layer    Maximum-Flux-Residual          L2-NORM 
          0                 1           2             4    7     1       0.7154579931E-02       4    7    1         0.3760627244E+00      0.8801908180E+00
          0                 2           2             4    7     1      -0.6959467768E-03       4    7    1        -0.3760635689E-01      0.8801737766E-01
          0                 3           1             4    7     1       0.4739138446E-04       4    7    1         0.2632445329E-02      0.6161037380E-02

    ------------------------------------------------
       NWT REQUIRED            3 OUTER ITERATIONS 
       AND A TOTAL OF          5 INNER ITERATIONS.
    ------------------------------------------------

 NO OUTPUT CONTROL FOR STRESS PERIOD   26   TIME STEP    8
 
 SOLVING FOR HEAD 
                                                   Max.-Head-Change                         Max.-Flux-Residual
  Residual-Control   Outer-Iter.   Inner-Iter.     Column Row Layer    Maximum-Head-Change  Column Row Layer    Maximum-Flux-Residual          L2-NORM 
          0                 1           2             4    7     1       0.7072898178E-02       4    7    1         0.3717418676E+00      0.8721349888E+00
          0                 2           2             4    7     1      -0.6880013355E-03       4    7    1        -0.3717426889E-01      0.8721215031E-01
          0                 3           1             4    7     1       0.4685032948E-04       4    7    1         0.2602199175E-02      0.6104711272E-02

    ------------------------------------------------
       NWT REQUIRED            3 OUTER ITERATIONS 
       AND A TOTAL OF          5 INNER ITERATIONS.
    ------------------------------------------------

 NO OUTPUT CONTROL FOR STRESS PERIOD   26   TIME STEP    9
 
 SOLVING FOR HEAD 
                                                   Max.-Head-Change                         Max.-Flux-Residual
  Residual-Control   Outer-Iter.   Inner-Iter.     Column Row Layer    Maximum-Head-Change  Column Row Layer    Maximum-Flux-Residual          L2-NORM 
          0                 1           2             4    7     1       0.6992811095E-02       4    7    1         0.3675067642E+00      0.8641972209E+00
          0                 2           2             4    7     1      -0.6802110128E-03       4    7    1        -0.3675075630E-01      0.8641866132E-01
          0                 3           1             4    7     1       0.4631983793E-04       4    7    1         0.2572553297E-02      0.6049228315E-02

    ------------------------------------------------
       NWT REQUIRED            3 OUTER ITERATIONS 
       AND A TOTAL OF          5 INNER ITERATIONS.
    ------------------------------------------------

 NO OUTPUT CONTROL FOR STRESS PERIOD   26   TIME STEP   10
 
 SOLVING FOR HEAD 
                                                   Max.-Head-Change                         Max.-Flux-Residual
  Residual-Control   Outer-Iter.   Inner-Iter.     Column Row Layer    Maximum-Head-Change  Column Row Layer    Maximum-Flux-Residual          L2-NORM 
          0                 1           2             4    7     1       0.6914006905E-02       4    7    1         0.3633395599E+00      0.8563938715E+00
          0                 2           2             4    7     1      -0.6725454825E-03       4    7    1        -0.3633403372E-01      0.8563857252E-01
          0                 3           1             4    7     1       0.4579784391E-04       4    7    1         0.2543382733E-02      0.5994629330E-02

    ------------------------------------------------
       NWT REQUIRED            3 OUTER ITERATIONS 
       AND A TOTAL OF          5 INNER ITERATIONS.
    ------------------------------------------------

 NO OUTPUT CONTROL FOR STRESS PERIOD   26   TIME STEP   11
 
 SOLVING FOR HEAD 
                                                   Max.-Head-Change                         Max.-Flux-Residual
  Residual-Control   Outer-Iter.   Inner-Iter.     Column Row Layer    Maximum-Head-Change  Column Row Layer    Maximum-Flux-Residual          L2-NORM 
          0                 1           2             4    7     1       0.6836728313E-02       4    7    1         0.3592536543E+00      0.8487149439E+00
          0                 2           2             4    7     1      -0.6650283517E-03       4    7    1        -0.3592544107E-01      0.8487086060E-01
          0                 3           1             4    7     1       0.4528595512E-04       4    7    1         0.2514781239E-02      0.5940917165E-02

    ------------------------------------------------
       NWT REQUIRED            3 OUTER ITERATIONS 
       AND A TOTAL OF          5 INNER ITERATIONS.
    ------------------------------------------------

 NO OUTPUT CONTROL FOR STRESS PERIOD   26   TIME STEP   12
 
 SOLVING FOR HEAD 
                                                   Max.-Head-Change                         Max.-Flux-Residual
  Residual-Control   Outer-Iter.   Inner-Iter.     Column Row Layer    Maximum-Head-Change  Column Row Layer    Maximum-Flux-Residual          L2-NORM 
          0                 1           2             4    7     1       0.6760661967E-02       4    7    1         0.3552320662E+00      0.8411528258E+00
          0                 2           2             4    7     1      -0.6576291404E-03       4    7    1        -0.3552328020E-01      0.8411478868E-01
          0                 3           1             4    7     1       0.4478209690E-04       4    7    1         0.2486629992E-02      0.5887982138E-02

    ------------------------------------------------
       NWT REQUIRED            3 OUTER ITERATIONS 
       AND A TOTAL OF          5 INNER ITERATIONS.
    ------------------------------------------------

 NO OUTPUT CONTROL FOR STRESS PERIOD   26   TIME STEP   13
 
 SOLVING FOR HEAD 
                                                   Max.-Head-Change                         Max.-Flux-Residual
  Residual-Control   Outer-Iter.   Inner-Iter.     Column Row Layer    Maximum-Head-Change  Column Row Layer    Maximum-Flux-Residual          L2-NORM 
          0                 1           2             4    7     1       0.6685766556E-02       4    7    1         0.3512733312E+00      0.8336914660E+00
          0                 2           2             4    7     1      -0.6503438305E-03       4    7    1        -0.3512740475E-01      0.8336878583E-01
          0                 3           1             4    7     1       0.4428599469E-04       4    7    1         0.2458918729E-02      0.5835784990E-02

    ------------------------------------------------
       NWT REQUIRED            3 OUTER ITERATIONS 
       AND A TOTAL OF          5 INNER ITERATIONS.
    ------------------------------------------------

 NO OUTPUT CONTROL FOR STRESS PERIOD   26   TIME STEP   14
 
 SOLVING FOR HEAD 
                                                   Max.-Head-Change                         Max.-Flux-Residual
  Residual-Control   Outer-Iter.   Inner-Iter.     Column Row Layer    Maximum-Head-Change  Column Row Layer    Maximum-Flux-Residual          L2-NORM 
          0                 1           2             4    7     1       0.6612299527E-02       4    7    1         0.3473900904E+00      0.8263611015E+00
          0                 2           2             4    7     1      -0.6431974640E-03       4    7    1        -0.3473907876E-01      0.8263583792E-01
          0                 3           1             4    7     1       0.4379935398E-04       4    7    1         0.2431735912E-02      0.5784472383E-02

    ------------------------------------------------
       NWT REQUIRED            3 OUTER ITERATIONS 
       AND A TOTAL OF          5 INNER ITERATIONS.
    ------------------------------------------------

 NO OUTPUT CONTROL FOR STRESS PERIOD   26   TIME STEP   15
 
 SOLVING FOR HEAD 
                                                   Max.-Head-Change                         Max.-Flux-Residual
  Residual-Control   Outer-Iter.   Inner-Iter.     Column Row Layer    Maximum-Head-Change  Column Row Layer    Maximum-Flux-Residual          L2-NORM 
          0                 1           2             4    7     1       0.6539941957E-02       4    7    1         0.3435661262E+00      0.8191280081E+00
          0                 2           2             4    7     1      -0.6361590181E-03       4    7    1        -0.3435668050E-01      0.8191262952E-01
          0                 3           1             4    7     1       0.4332006173E-04       4    7    1         0.2404968026E-02      0.5733895082E-02

    ------------------------------------------------
       NWT REQUIRED            3 OUTER ITERATIONS 
       AND A TOTAL OF          5 INNER ITERATIONS.
    ------------------------------------------------

 NO OUTPUT CONTROL FOR STRESS PERIOD   26   TIME STEP   16
 
 SOLVING FOR HEAD 
                                                   Max.-Head-Change                         Max.-Flux-Residual
  Residual-Control   Outer-Iter.   Inner-Iter.     Column Row Layer    Maximum-Head-Change  Column Row Layer    Maximum-Flux-Residual          L2-NORM 
          0                 1           2             4    7     1       0.6468944830E-02       4    7    1         0.3398144693E+00      0.8120045500E+00
          0                 2           2             4    7     1      -0.6292529076E-03       4    7    1        -0.3398151305E-01      0.8120035059E-01
          0                 3           1             4    7     1       0.4284978129E-04       4    7    1         0.2378706306E-02      0.5684008868E-02

    ------------------------------------------------
       NWT REQUIRED            3 OUTER ITERATIONS 
       AND A TOTAL OF          5 INNER ITERATIONS.
    ------------------------------------------------

 NO OUTPUT CONTROL FOR STRESS PERIOD   26   TIME STEP   17
 
 SOLVING FOR HEAD 
                                                   Max.-Head-Change                         Max.-Flux-Residual
  Residual-Control   Outer-Iter.   Inner-Iter.     Column Row Layer    Maximum-Head-Change  Column Row Layer    Maximum-Flux-Residual          L2-NORM 
          0                 1           2             4    7     1       0.6398992721E-02       4    7    1         0.3361185657E+00      0.8049710978E+00
          0                 2           2             4    7     1      -0.6224484496E-03       4    7    1        -0.3361192096E-01      0.8049704376E-01
          0                 3           1             4    7     1       0.4238642354E-04       4    7    1         0.2352834886E-02      0.5634792631E-02

    ------------------------------------------------
       NWT REQUIRED            3 OUTER ITERATIONS 
       AND A TOTAL OF          5 INNER ITERATIONS.
    ------------------------------------------------

 NO OUTPUT CONTROL FOR STRESS PERIOD   26   TIME STEP   18
 
 SOLVING FOR HEAD 
                                                   Max.-Head-Change                         Max.-Flux-Residual
  Residual-Control   Outer-Iter.   Inner-Iter.     Column Row Layer    Maximum-Head-Change  Column Row Layer    Maximum-Flux-Residual          L2-NORM 
          0                 1           2             4    7     1       0.6330336731E-02       4    7    1         0.3324916288E+00      0.7980547106E+00
          0                 2           2             4    7     1      -0.6157700691E-03       4    7    1        -0.3324922559E-01      0.7980543081E-01
          0                 3           1             4    7     1       0.4193165064E-04       4    7    1         0.2327446198E-02      0.5586370566E-02

    ------------------------------------------------
       NWT REQUIRED            3 OUTER ITERATIONS 
       AND A TOTAL OF          5 INNER ITERATIONS.
    ------------------------------------------------

 NO OUTPUT CONTROL FOR STRESS PERIOD   26   TIME STEP   19
 
 SOLVING FOR HEAD 
                                                   Max.-Head-Change                         Max.-Flux-Residual
  Residual-Control   Outer-Iter.   Inner-Iter.     Column Row Layer    Maximum-Head-Change  Column Row Layer    Maximum-Flux-Residual          L2-NORM 
          0                 1           2             4    7     1       0.6262670721E-02       4    7    1         0.3289171097E+00      0.7912358108E+00
          0                 2           2             4    7     1      -0.6091879880E-03       4    7    1        -0.3289177209E-01      0.7912356855E-01
          0                 3           1             4    7     1       0.4148343572E-04       4    7    1         0.2302424453E-02      0.5538640874E-02

    ------------------------------------------------
       NWT REQUIRED            3 OUTER ITERATIONS 
       AND A TOTAL OF          5 INNER ITERATIONS.
    ------------------------------------------------

 NO OUTPUT CONTROL FOR STRESS PERIOD   26   TIME STEP   20
 
 SOLVING FOR HEAD 
                                                   Max.-Head-Change                         Max.-Flux-Residual
  Residual-Control   Outer-Iter.   Inner-Iter.     Column Row Layer    Maximum-Head-Change  Column Row Layer    Maximum-Flux-Residual          L2-NORM 
          0                 1           2             4    7     1       0.6195975052E-02       4    7    1         0.3253939195E+00      0.7845036411E+00
          0                 2           2             4    7     1      -0.6027002949E-03       4    7    1        -0.3253945150E-01      0.7845037815E-01
          0                 3           1             4    7     1       0.4104164790E-04       4    7    1         0.2277762018E-02      0.5491528040E-02

    ------------------------------------------------
       NWT REQUIRED            3 OUTER ITERATIONS 
       AND A TOTAL OF          5 INNER ITERATIONS.
    ------------------------------------------------

 NO OUTPUT CONTROL FOR STRESS PERIOD   26   TIME STEP   21
 
 SOLVING FOR HEAD 
                                                   Max.-Head-Change                         Max.-Flux-Residual
  Residual-Control   Outer-Iter.   Inner-Iter.     Column Row Layer    Maximum-Head-Change  Column Row Layer    Maximum-Flux-Residual          L2-NORM 
          0                 1           2             4    7     1       0.6130766219E-02       4    7    1         0.3219506096E+00      0.7778710503E+00
          0                 2           2             4    7     1      -0.5963572317E-03       4    7    1        -0.3219511901E-01      0.7778712308E-01
          0                 3           1             4    7     1       0.4060970924E-04       4    7    1         0.2253658758E-02      0.5445098097E-02

    ------------------------------------------------
       NWT REQUIRED            3 OUTER ITERATIONS 
       AND A TOTAL OF          5 INNER ITERATIONS.
    ------------------------------------------------

 NO OUTPUT CONTROL FOR STRESS PERIOD   26   TIME STEP   22
 
 SOLVING FOR HEAD 
                                                   Max.-Head-Change                         Max.-Flux-Residual
  Residual-Control   Outer-Iter.   Inner-Iter.     Column Row Layer    Maximum-Head-Change  Column Row Layer    Maximum-Flux-Residual          L2-NORM 
          0                 1           2             4    7     1       0.6066192128E-02       4    7    1         0.3185400355E+00      0.7713353589E+00
          0                 2           2             4    7     1      -0.5900759116E-03       4    7    1        -0.3185406013E-01      0.7713354978E-01
          0                 3           1             4    7     1       0.4018197437E-04       4    7    1         0.2229784625E-02      0.5399343651E-02

    ------------------------------------------------
       NWT REQUIRED            3 OUTER ITERATIONS 
       AND A TOTAL OF          5 INNER ITERATIONS.
    ------------------------------------------------

 NO OUTPUT CONTROL FOR STRESS PERIOD   26   TIME STEP   23
 
 SOLVING FOR HEAD 
                                                   Max.-Head-Change                         Max.-Flux-Residual
  Residual-Control   Outer-Iter.   Inner-Iter.     Column Row Layer    Maximum-Head-Change  Column Row Layer    Maximum-Flux-Residual          L2-NORM 
          0                 1           2             4    7     1       0.6003056724E-02       4    7    1         0.3152067271E+00      0.7648874724E+00
          0                 2           2             4    7     1      -0.5839345374E-03       4    7    1        -0.3152072786E-01      0.7648877433E-01
          0                 3           1             4    7     1       0.3976377033E-04       4    7    1         0.2206451382E-02      0.5354215351E-02

    ------------------------------------------------
       NWT REQUIRED            3 OUTER ITERATIONS 
       AND A TOTAL OF          5 INNER ITERATIONS.
    ------------------------------------------------

 NO OUTPUT CONTROL FOR STRESS PERIOD   26   TIME STEP   24
 
 SOLVING FOR HEAD 
                                                   Max.-Head-Change                         Max.-Flux-Residual
  Residual-Control   Outer-Iter.   Inner-Iter.     Column Row Layer    Maximum-Head-Change  Column Row Layer    Maximum-Flux-Residual          L2-NORM 
          0                 1           2             4    7     1       0.5940499603E-02       4    7    1         0.3119036570E+00      0.7585225465E+00
          0                 2           2             4    7     1      -0.5778494150E-03       4    7    1        -0.3119041947E-01      0.7585228137E-01
          0                 3           1             4    7     1       0.3934939614E-04       4    7    1         0.2183329798E-02      0.5309656710E-02

    ------------------------------------------------
       NWT REQUIRED            3 OUTER ITERATIONS 
       AND A TOTAL OF          5 INNER ITERATIONS.
    ------------------------------------------------

 NO OUTPUT CONTROL FOR STRESS PERIOD   26   TIME STEP   25
 
 SOLVING FOR HEAD 
                                                   Max.-Head-Change                         Max.-Flux-Residual
  Residual-Control   Outer-Iter.   Inner-Iter.     Column Row Layer    Maximum-Head-Change  Column Row Layer    Maximum-Flux-Residual          L2-NORM 
          0                 1           2             4    7     1       0.5879063875E-02       4    7    1         0.3086601406E+00      0.7522464770E+00
          0                 2           2             4    7     1      -0.5718733741E-03       4    7    1        -0.3086606649E-01      0.7522466567E-01
          0                 3           1             4    7     1       0.3894245018E-04       4    7    1         0.2160625101E-02      0.5265725646E-02

    ------------------------------------------------
       NWT REQUIRED            3 OUTER ITERATIONS 
       AND A TOTAL OF          5 INNER ITERATIONS.
    ------------------------------------------------

 NO OUTPUT CONTROL FOR STRESS PERIOD   26   TIME STEP   26
 
 SOLVING FOR HEAD 
                                                   Max.-Head-Change                         Max.-Flux-Residual
  Residual-Control   Outer-Iter.   Inner-Iter.     Column Row Layer    Maximum-Head-Change  Column Row Layer    Maximum-Flux-Residual          L2-NORM 
          0                 1           2             4    7     1       0.5818711704E-02       4    7    1         0.3054747671E+00      0.7460560916E+00
          0                 2           2             4    7     1      -0.5660027348E-03       4    7    1        -0.3054752786E-01      0.7460562315E-01
          0                 3           1             4    7     1       0.3854268133E-04       4    7    1         0.2138327391E-02      0.5222386998E-02

    ------------------------------------------------
       NWT REQUIRED            3 OUTER ITERATIONS 
       AND A TOTAL OF          5 INNER ITERATIONS.
    ------------------------------------------------

 NO OUTPUT CONTROL FOR STRESS PERIOD   26   TIME STEP   27
 
 SOLVING FOR HEAD 
                                                   Max.-Head-Change                         Max.-Flux-Residual
  Residual-Control   Outer-Iter.   Inner-Iter.     Column Row Layer    Maximum-Head-Change  Column Row Layer    Maximum-Flux-Residual          L2-NORM 
          0                 1           2             4    7     1       0.5759424002E-02       4    7    1         0.3023455746E+00      0.7399514191E+00
          0                 2           2             4    7     1      -0.5602356394E-03       4    7    1        -0.3023460736E-01      0.7399514662E-01
          0                 3           1             4    7     1       0.3814996369E-04       4    7    1         0.2116422947E-02      0.5179658634E-02

    ------------------------------------------------
       NWT REQUIRED            3 OUTER ITERATIONS 
       AND A TOTAL OF          5 INNER ITERATIONS.
    ------------------------------------------------

 NO OUTPUT CONTROL FOR STRESS PERIOD   26   TIME STEP   28
 
 SOLVING FOR HEAD 
                                                   Max.-Head-Change                         Max.-Flux-Residual
  Residual-Control   Outer-Iter.   Inner-Iter.     Column Row Layer    Maximum-Head-Change  Column Row Layer    Maximum-Flux-Residual          L2-NORM 
          0                 1           2             4    7     1       0.5700898754E-02       4    7    1         0.2992567876E+00      0.7339300647E+00
          0                 2           2             4    7     1      -0.5545427107E-03       4    7    1        -0.2992572743E-01      0.7339300944E-01
          0                 3           1             4    7     1       0.3776229666E-04       4    7    1         0.2094801360E-02      0.5137516635E-02

    ------------------------------------------------
       NWT REQUIRED            3 OUTER ITERATIONS 
       AND A TOTAL OF          5 INNER ITERATIONS.
    ------------------------------------------------

 NO OUTPUT CONTROL FOR STRESS PERIOD   26   TIME STEP   29
 
 SOLVING FOR HEAD 
                                                   Max.-Head-Change                         Max.-Flux-Residual
  Residual-Control   Outer-Iter.   Inner-Iter.     Column Row Layer    Maximum-Head-Change  Column Row Layer    Maximum-Flux-Residual          L2-NORM 
          0                 1           2             4    7     1       0.5643121590E-02       4    7    1         0.2962075327E+00      0.7279838578E+00
          0                 2           2             4    7     1      -0.5489225504E-03       4    7    1        -0.2962080075E-01      0.7279836471E-01
          0                 3           1             4    7     1       0.3737958438E-04       4    7    1         0.2073456483E-02      0.5095877395E-02

    ------------------------------------------------
       NWT REQUIRED            3 OUTER ITERATIONS 
       AND A TOTAL OF          5 INNER ITERATIONS.
    ------------------------------------------------

 NO OUTPUT CONTROL FOR STRESS PERIOD   26   TIME STEP   30



 STREAM LISTING     PERIOD     26   STEP       30

 LAYER ROW COL. STREAM  RCH.  FLOW INTO     FLOW TO   FLOW OUT OF   OVRLND.     DIRECT     STREAM       STREAM     STREAM     STREAM   STREAMBED  STREAMBED
                SEG.NO.  NO.  STRM. RCH.    AQUIFER    STRM. RCH.    RUNOFF     PRECIP       ET          HEAD       DEPTH      WIDTH   CONDCTNC.   GRADIENT

   1    1    1     1     1    1.6500E+01  1.9759E-01   1.6303E+01  0.000E+00  0.000E+00  0.000E+00  1.09409E+03  1.039E+00  1.087E+01  4.893E-02  1.346E+00
   1    2    2     1     2    1.6303E+01  3.0466E-01   1.5998E+01  0.000E+00  0.000E+00  0.000E+00  1.08909E+03  1.034E+00  1.079E+01  7.552E-02  1.345E+00
   1    3    3     1     3    1.5998E+01  2.5853E-01   1.5739E+01  0.000E+00  0.000E+00  0.000E+00  1.08345E+03  1.029E+00  1.070E+01  6.417E-02  1.343E+00
   1    3    4     1     4    1.5739E+01  2.3700E-01   1.5502E+01  0.000E+00  0.000E+00  0.000E+00  1.07843E+03  1.024E+00  1.061E+01  5.890E-02  1.341E+00
   1    4    5     2     1    1.3502E+01  2.9865E-01   1.3204E+01  0.000E+00  0.000E+00  0.000E+00  1.07276E+03  8.289E-01  1.200E+01  7.800E-02  1.276E+00
   1    5    6     2     2    1.3204E+01  2.2914E-01   1.2975E+01  0.000E+00  0.000E+00  0.000E+00  1.06733E+03  8.190E-01  1.200E+01  6.000E-02  1.273E+00
   1    6    6     2     3    1.2975E+01  2.2862E-01   1.2746E+01  0.000E+00  0.000E+00  0.000E+00  1.06260E+03  8.104E-01  1.200E+01  6.000E-02  1.270E+00
   1    7    6     2     4    1.2746E+01  2.2810E-01   1.2518E+01  0.000E+00  0.000E+00  0.000E+00  1.05788E+03  8.017E-01  1.200E+01  6.000E-02  1.267E+00
   1    8    6     2     5    1.2518E+01  2.2758E-01   1.2290E+01  0.000E+00  0.000E+00  0.000E+00  1.05315E+03  7.930E-01  1.200E+01  6.000E-02  1.264E+00
   1    3    5     3     1    2.0000E+00  2.8252E-01   1.7175E+00  0.000E+00  0.000E+00  0.000E+00  1.07555E+03  1.909E+00  9.636E+00  7.227E-02  1.955E+00
   1    3    6     3     2    1.7175E+00  2.4905E-01   1.4684E+00  0.000E+00  0.000E+00  0.000E+00  1.07264E+03  1.727E+00  8.909E+00  6.682E-02  1.864E+00
   1    3    7     3     3    1.4684E+00  1.9718E-01   1.2712E+00  0.000E+00  0.000E+00  0.000E+00  1.06987E+03  1.555E+00  8.218E+00  5.547E-02  1.777E+00
   1    4    8     3     4    1.2712E+00  2.2567E-01   1.0456E+00  0.000E+00  0.000E+00  0.000E+00  1.06682E+03  1.364E+00  7.455E+00  6.709E-02  1.682E+00
   1    5    8     3     5    1.0456E+00  1.5790E-01   8.8768E-01  0.000E+00  0.000E+00  0.000E+00  1.06362E+03  1.164E+00  6.655E+00  4.991E-02  1.582E+00
   1    6    8     3     6    8.8768E-01  5.5980E-02   8.3170E-01  0.000E+00  0.000E+00  0.000E+00  1.06158E+03  1.036E+00  6.145E+00  1.844E-02  1.518E+00
   1    5   10     4     1    1.0000E+01  9.0919E-02   9.9091E+00  0.000E+00  0.000E+00  0.000E+00  1.07836E+03  6.368E-01  1.000E+01  2.500E-02  1.212E+00
   1    5    9     4     2    9.9091E+00  1.8158E-01   9.7275E+00  0.000E+00  0.000E+00  0.000E+00  1.07154E+03  6.315E-01  1.000E+01  5.000E-02  1.211E+00
   1    6    8     4     3    9.7275E+00  1.2689E-01   9.6006E+00  0.000E+00  0.000E+00  0.000E+00  1.06381E+03  6.256E-01  1.000E+01  3.500E-02  1.209E+00
   1    6    8     5     1    1.0432E+01  2.2686E-01   1.0205E+01  0.000E+00  0.000E+00  0.000E+00  1.05868E+03  6.790E-01  1.542E+01  6.166E-02  1.226E+00
   1    7    7     5     2    1.0205E+01  2.7894E-01   9.9265E+00  0.000E+00  0.000E+00  0.000E+00  1.05417E+03  6.732E-01  1.519E+01  7.594E-02  1.224E+00
   1    8    7     5     3    9.9265E+00  1.9221E-01   9.7343E+00  0.000E+00  0.000E+00  0.000E+00  1.04992E+03  6.676E-01  1.497E+01  5.241E-02  1.223E+00
   1    8    6     5     4    9.7343E+00  1.3577E-01   9.5985E+00  0.000E+00  0.000E+00  0.000E+00  1.04691E+03  6.637E-01  1.482E+01  3.706E-02  1.221E+00
   1    9    6     6     1    2.1889E+01  2.4742E-01   2.1641E+01  0.000E+00  0.000E+00  0.000E+00  1.04385E+03  1.124E+00  1.200E+01  6.000E-02  1.375E+00
   1   10    7     6     2    2.1641E+01  2.4696E-01   2.1395E+01  0.000E+00  0.000E+00  0.000E+00  1.03930E+03  1.116E+00  1.200E+01  6.000E-02  1.372E+00
   1   11    7     6     3    2.1395E+01  2.4650E-01   2.1148E+01  0.000E+00  0.000E+00  0.000E+00  1.03474E+03  1.108E+00  1.200E+01  6.000E-02  1.369E+00
   1   12    7     6     4    2.1148E+01  2.4603E-01   2.0902E+01  0.000E+00  0.000E+00  0.000E+00  1.03019E+03  1.101E+00  1.200E+01  6.000E-02  1.367E+00
   1   13    7     6     5    2.0902E+01 -1.8363E-02   2.0920E+01  0.000E+00  0.000E+00  0.000E+00  1.02701E+03  1.097E+00  1.200E+01  2.400E-01 -2.550E-02
   1   14    9     7     1    1.5000E+02  1.3374E+00   1.4866E+02  0.000E+00  0.000E+00  0.000E+00  1.03987E+03  2.288E+00  5.529E+01  5.593E-01  7.971E-01
   1   13    8     7     2    1.4866E+02  1.8318E+00   1.4683E+02  0.000E+00  0.000E+00  0.000E+00  1.03478E+03  2.279E+00  5.526E+01  6.148E-01  9.932E-01
   1   13    7     7     3    1.4683E+02  1.4560E+00   1.4537E+02  0.000E+00  0.000E+00  0.000E+00  1.02969E+03  2.271E+00  5.522E+01  5.585E-01  8.691E-01
   1   13    6     8     1    1.6630E+02  8.8551E-01   1.6541E+02  0.000E+00  0.000E+00  0.000E+00  1.02480E+03  2.925E+00  4.241E+01  4.322E-01  6.830E-01
   1   13    5     8     2    1.6541E+02  1.4335E-01   1.6527E+02  0.000E+00  0.000E+00  0.000E+00  1.01855E+03  2.922E+00  4.236E+01  4.317E-01  1.107E-01
   1   13    4     8     3    1.6527E+02 -2.5447E+00   1.6781E+02  0.000E+00  0.000E+00  0.000E+00  1.01230E+03  2.930E+00  4.248E+01  4.329E+00 -1.960E-01
   1   13    3     8     4    1.6781E+02 -3.6935E+00   1.7150E+02  0.000E+00  0.000E+00  0.000E+00  1.00607E+03  2.950E+00  4.277E+01  4.359E+00 -2.825E-01
   1   13    2     8     5    1.7150E+02 -2.5809E+00   1.7409E+02  0.000E+00  0.000E+00  0.000E+00  9.99845E+02  2.970E+00  4.307E+01  4.389E+00 -1.960E-01
   1   13    1     8     6    1.7409E+02 -1.9757E+00   1.7606E+02  0.000E+00  0.000E+00  0.000E+00  9.94860E+02  2.985E+00  4.328E+01  2.646E+00 -2.489E-01
   1    8    6     9     1    0.0000E+00  0.0000E+00   0.0000E+00  0.000E+00  0.000E+00  0.000E+00  1.07875E+03  0.000E+00  4.000E+00  0.000E+00  1.000E+00
   1    8    5     9     2    0.0000E+00  0.0000E+00   0.0000E+00  0.000E+00  0.000E+00  0.000E+00  1.07825E+03  0.000E+00  4.000E+00  0.000E+00  1.000E+00





UNSATURATED ZONE PACKAGE VOLUMETRIC BUDGET FOR  TIME STEP    30 STRESS PERIOD   26
  ------------------------------------------------------------------------------



     CUMULATIVE VOLUMES      L**3       RATES FOR THIS TIME STEP      L**3/T
     ------------------                 ------------------------

           IN:                                      IN:
           ---                                      ---
        INFILTRATION =  1088641318.3196          INFILTRATION =           4.4075

          OUT:                                     OUT:
          ----                                     ----
              UZF ET =   999363148.5942                UZF ET =           0.7250
        UZF RECHARGE =      654716.9165          UZF RECHARGE =       0.0000E+00

            IN - OUT =    88623452.8088              IN - OUT =           3.6825

          STORAGE:                                 STORAGE:
          --------                                 --------
      STORAGE CHANGE =    88624043.2274        STORAGE CHANGE =           3.6825

 PERCENT DISCREPANCY IS DIFFERENCE BETWEEN IN-OUT MINUS CHANGE IN STORAGE
 DIVIDED BY THE AVERAGE OF IN AND OUT TIMES 100

 PERCENT DISCREPANCY =          -0.00     PERCENT DISCREPANCY =           0.00






1
  VOLUMETRIC BUDGET FOR AGRICULTURAL FIELDS AT TIME STEP   30, STRESS PERIOD  26
  ------------------------------------------------------------------------------

     CUMULATIVE VOLUMES      L**3       RATES FOR THIS TIME STEP      L**3/T
     ------------------                 ------------------------

           IN:                                      IN:
           ---                                      ---
               AG WELLS  =   175546176.0000                 AG WELLS  =           0.0000
      DIVERSION SEGMENTS =   623216576.0000        DIVERSION SEGMENTS =           0.0000
           GW IRRIGATION =           0.0000             GW IRRIGATION =           0.0000
           SW IRRIGATION =           0.0000             SW IRRIGATION =           0.0000
        SYSTEM LOSSES GW =           0.0000          SYSTEM LOSSES GW =           0.0000
        SYSTEM LOSSES SW =           0.0000          SYSTEM LOSSES SW =           0.0000

                TOTAL IN =   798762752.0000                  TOTAL IN =           0.0000

          OUT:                                     OUT:
          ----                                     ----
               AG WELLS  =           0.0000                 AG WELLS  =           0.0000
      DIVERSION SEGMENTS =           0.0000        DIVERSION SEGMENTS =           0.0000
           GW IRRIGATION =   175546176.0000             GW IRRIGATION =           0.0000
           SW IRRIGATION =   623229888.0000             SW IRRIGATION =           0.0000
        SYSTEM LOSSES GW =           0.0000          SYSTEM LOSSES GW =           0.0000
        SYSTEM LOSSES SW =           0.0000          SYSTEM LOSSES SW =           0.0000

               TOTAL OUT =   798776064.0000                 TOTAL OUT =           0.0000

                IN - OUT =      -13312.0000                  IN - OUT =           0.0000

     PERCENT DISCREPANCY =          -0.00         PERCENT DISCREPANCY =           0.00



1
  VOLUMETRIC BUDGET FOR ENTIRE MODEL AT END OF TIME STEP   30, STRESS PERIOD  26
  ------------------------------------------------------------------------------

     CUMULATIVE VOLUMES      L**3       RATES FOR THIS TIME STEP      L**3/T
     ------------------                 ------------------------

           IN:                                      IN:
           ---                                      ---
             STORAGE     =   292088288.0000               STORAGE     =           2.1256
       CONSTANT HEAD     =           0.0000         CONSTANT HEAD     =           0.0000
     HEAD DEP BOUNDS     =    18813694.0000       HEAD DEP BOUNDS     =           0.2859
      STREAM LEAKAGE     =   778184576.0000        STREAM LEAKAGE     =          11.2524
        UZF RECHARGE     =      654716.8125          UZF RECHARGE     =           0.0000
               GW ET     =           0.0000                 GW ET     =           0.0000
     SURFACE LEAKAGE     =           0.0000       SURFACE LEAKAGE     =           0.0000
           AG WELLS      =           0.0000             AG WELLS      =           0.0000

                TOTAL IN =  1089741312.0000                  TOTAL IN =          13.6639

          OUT:                                     OUT:
          ----                                     ----
             STORAGE     =   176213344.0000               STORAGE     =           2.5618
       CONSTANT HEAD     =           0.0000         CONSTANT HEAD     =           0.0000
     HEAD DEP BOUNDS     =    19125010.0000       HEAD DEP BOUNDS     =           0.2890
      STREAM LEAKAGE     =   716562560.0000        STREAM LEAKAGE     =          10.8132
        UZF RECHARGE     =           0.0000          UZF RECHARGE     =           0.0000
               GW ET     =     2260364.5000                 GW ET     =           0.0000
     SURFACE LEAKAGE     =           0.0000       SURFACE LEAKAGE     =           0.0000
           AG WELLS      =   175546176.0000             AG WELLS      =           0.0000

               TOTAL OUT =  1089707520.0000                 TOTAL OUT =          13.6640

                IN - OUT =       33792.0000                  IN - OUT =      -1.2112E-04

     PERCENT DISCREPANCY =           0.00         PERCENT DISCREPANCY =          -0.00






         TIME SUMMARY AT END OF TIME STEP   30 IN STRESS PERIOD   26
                    SECONDS     MINUTES      HOURS       DAYS        YEARS
                    -----------------------------------------------------------
   TIME STEP LENGTH  87667.      1461.1      24.352      1.0147     2.77799E-03
 STRESS PERIOD TIME 2.63000E+06  43833.      730.56      30.440     8.33397E-02
         TOTAL TIME 6.58368E+07 1.09728E+06  18288.      762.00      2.0862    
1
1
                            STRESS PERIOD NO.   27, LENGTH =   2630000.    
                            -----------------------------------------------

                              NUMBER OF TIME STEPS =    30

                               MULTIPLIER FOR DELT =     1.000

                            INITIAL TIME STEP SIZE =   87666.66    

 REUSING NON-PARAMETER GHB CELLS FROM LAST STRESS PERIOD

      2 GHB CELLS

 REUSING STREAM SEGMENT DATA FROM LAST STRESS PERIOD



            AREAL INFILTRATION RATE
 READING ON UNIT   19 WITH FORMAT: (10F4.0)            

            1           2           3           4           5           6           7           8           9          10
 ........................................................................................................................
   1   1.2000E-09   0.000       0.000       0.000       0.000       0.000       0.000       0.000       0.000       0.000    
   2   2.1000E-09  2.0000E-09  8.0000E-10  8.5000E-09   0.000       0.000       0.000       0.000       0.000       0.000    
   3   5.0000E-10  1.1000E-09  8.8000E-09  5.5000E-09   0.000       0.000       0.000       0.000       0.000       0.000    
   4   8.5000E-09  1.1000E-09  1.1000E-09  1.1000E-09  2.0000E-09   0.000       0.000       0.000       0.000       0.000    
   5   8.5000E-09  1.1000E-09  1.1000E-09  1.1000E-09  1.1000E-09   0.000       0.000       0.000       0.000       0.000    
   6   8.5000E-09  5.2000E-09  2.1000E-09  1.1000E-09  1.5000E-09   0.000       0.000       0.000       0.000       0.000    
   7   8.5000E-09  5.2000E-09  2.1000E-09  1.2000E-09  2.0000E-09   0.000       0.000       0.000       0.000       0.000    
   8   5.0000E-10  5.2000E-09  2.1000E-09  1.2000E-09  5.0000E-09   0.000       0.000       0.000       0.000       0.000    
   9   5.0000E-10  5.2000E-09  2.1000E-09  1.2000E-09  5.0000E-09   0.000       0.000       0.000       0.000       0.000    
  10   5.0000E-10  5.2000E-09  2.1000E-09  1.2000E-09  5.8000E-09   0.000       0.000       0.000       0.000       0.000    
  11   1.0000E-10  1.1000E-09  1.1000E-09  1.2000E-09  5.0000E-09   0.000       0.000       0.000       0.000       0.000    
  12   1.1000E-09  1.1000E-09  1.1000E-09  1.1000E-09  2.0000E-09   0.000       0.000       0.000       0.000       0.000    
  13   1.1000E-09  2.2000E-09  2.2000E-09  2.1000E-09  1.0000E-09   0.000       0.000       0.000       0.000       0.000    
  14   2.0000E-10  5.5000E-09  5.5000E-09  5.2000E-09  1.0000E-09   0.000       0.000       0.000       0.000       0.000    
  15    0.000      8.8000E-09  8.8000E-09   0.000       0.000       0.000       0.000       0.000       0.000       0.000    

                  ET RATE =  5.000000E-10

 USING ET EXTINCTION DEPTH FROM PREVIOUS STRESS PERIOD. CURRENT PERIOD IS:      27

 USING EXTINCTION WATER CONTENT FROM PREVIOUS STRESS PERIOD. CURRENT PERIOD IS:      27

 USING AIR ENTRY PRESSURE FROM PREVIOUS STRESS PERIOD. CURRENT PERIOD IS:      27

 USING ROOT PRESSURE HEAD FROM PREVIOUS STRESS PERIOD. CURRENT PERIOD IS:      27

 USING ROOT ACTIVITY FROM PREVIOUS STRESS PERIOD. CURRENT PERIOD IS:      27

 PROCESSING AG STRESS PERIOD DATA

 READING AG STRESS PERIOD DATA

 READING IRRIGATION SEGMENT

 READING IRRIGATION WELL

 READING SUPPLEMENTAL WELL

 END PROCESSING AG STRESS PERIOD DATA OPTIONS
 
 SOLVING FOR HEAD 
                                                   Max.-Head-Change                         Max.-Flux-Residual
  Residual-Control   Outer-Iter.   Inner-Iter.     Column Row Layer    Maximum-Head-Change  Column Row Layer    Maximum-Flux-Residual          L2-NORM 
          0                 1           2             4    7     1       0.5586353540E-02       4    7    1         0.2932118510E+00      0.7221198559E+00
          0                 2           2             4    7     1      -0.5434005503E-03       4    7    1        -0.2932123145E-01      0.7221194898E-01
          0                 3           1             4    7     1       0.3700355670E-04       4    7    1         0.2052486624E-02      0.5054830565E-02

    ------------------------------------------------
       NWT REQUIRED            3 OUTER ITERATIONS 
       AND A TOTAL OF          5 INNER ITERATIONS.
    ------------------------------------------------

 NO OUTPUT CONTROL FOR STRESS PERIOD   27   TIME STEP    1
 
 SOLVING FOR HEAD 
                                                   Max.-Head-Change                         Max.-Flux-Residual
  Residual-Control   Outer-Iter.   Inner-Iter.     Column Row Layer    Maximum-Head-Change  Column Row Layer    Maximum-Flux-Residual          L2-NORM 
          0                 1           2             4    7     1       0.5530581504E-02       4    7    1         0.2902684908E+00      0.7187423655E+00
          0                 2           2             4    7     1      -0.5379754355E-03       4    7    1        -0.2902689430E-01      0.7185412813E-01
          0                 3           1             4    7     1       0.3663412677E-04       4    7    1         0.2031883033E-02      0.5027976907E-02

    ------------------------------------------------
       NWT REQUIRED            3 OUTER ITERATIONS 
       AND A TOTAL OF          5 INNER ITERATIONS.
    ------------------------------------------------

 NO OUTPUT CONTROL FOR STRESS PERIOD   27   TIME STEP    2
 
 SOLVING FOR HEAD 
                                                   Max.-Head-Change                         Max.-Flux-Residual
  Residual-Control   Outer-Iter.   Inner-Iter.     Column Row Layer    Maximum-Head-Change  Column Row Layer    Maximum-Flux-Residual          L2-NORM 
          0                 1           2             4   13     1       0.5477099674E-02       4   13    1         0.3148919799E+00      0.9191847419E+00
          0                 2           2             7   13     1      -0.1420936348E-02       7   13    1        -0.7883368795E-01      0.1188423559E+00
          0                 3           1             7   13     1       0.9673501833E-04       7   13    1         0.5516888561E-02      0.8245700712E-02

    ------------------------------------------------
       NWT REQUIRED            3 OUTER ITERATIONS 
       AND A TOTAL OF          5 INNER ITERATIONS.
    ------------------------------------------------

 NO OUTPUT CONTROL FOR STRESS PERIOD   27   TIME STEP    3
 
 SOLVING FOR HEAD 
                                                   Max.-Head-Change                         Max.-Flux-Residual
  Residual-Control   Outer-Iter.   Inner-Iter.     Column Row Layer    Maximum-Head-Change  Column Row Layer    Maximum-Flux-Residual          L2-NORM 
          0                 1           2             4    7     1       0.5421702449E-02       4   13    1         0.2861316291E+00      0.8863283878E+00
          0                 2           2             4    7     1      -0.5273844398E-03       4    7    1        -0.2845123981E-01      0.8780005616E-01
          0                 3           1             4    7     1       0.3591291917E-04       4    7    1         0.1991587249E-02      0.6069715940E-02

    ------------------------------------------------
       NWT REQUIRED            3 OUTER ITERATIONS 
       AND A TOTAL OF          5 INNER ITERATIONS.
    ------------------------------------------------

 NO OUTPUT CONTROL FOR STRESS PERIOD   27   TIME STEP    4
 
 SOLVING FOR HEAD 
                                                   Max.-Head-Change                         Max.-Flux-Residual
  Residual-Control   Outer-Iter.   Inner-Iter.     Column Row Layer    Maximum-Head-Change  Column Row Layer    Maximum-Flux-Residual          L2-NORM 
          0                 1           2             4    7     1       0.5368544621E-02       4    7    1         0.2817019441E+00      0.8590766958E+00
          0                 2           2             4    7     1      -0.5222136169E-03       4    7    1        -0.2817023635E-01      0.8517886355E-01
          0                 3           1             4    7     1       0.3556080520E-04       4    7    1         0.1971916989E-02      0.5895097705E-02

    ------------------------------------------------
       NWT REQUIRED            3 OUTER ITERATIONS 
       AND A TOTAL OF          5 INNER ITERATIONS.
    ------------------------------------------------

 NO OUTPUT CONTROL FOR STRESS PERIOD   27   TIME STEP    5
 
 SOLVING FOR HEAD 
                                                   Max.-Head-Change                         Max.-Flux-Residual
  Residual-Control   Outer-Iter.   Inner-Iter.     Column Row Layer    Maximum-Head-Change  Column Row Layer    Maximum-Flux-Residual          L2-NORM 
          0                 1           2             4    7     1       0.5316388331E-02       4    7    1         0.2789457711E+00      0.8347808273E+00
          0                 2           2             4    7     1      -0.5171402173E-03       4    7    1        -0.2789461804E-01      0.8284065780E-01
          0                 3           1             4    7     1       0.3521532565E-04       4    7    1         0.1952623709E-02      0.5740089829E-02

    ------------------------------------------------
       NWT REQUIRED            3 OUTER ITERATIONS 
       AND A TOTAL OF          5 INNER ITERATIONS.
    ------------------------------------------------

 NO OUTPUT CONTROL FOR STRESS PERIOD   27   TIME STEP    6
 
 SOLVING FOR HEAD 
                                                   Max.-Head-Change                         Max.-Flux-Residual
  Residual-Control   Outer-Iter.   Inner-Iter.     Column Row Layer    Maximum-Head-Change  Column Row Layer    Maximum-Flux-Residual          L2-NORM 
          0                 1           2             4    7     1       0.5265204284E-02       4    7    1         0.2762415264E+00      0.8130696287E+00
          0                 2           2             4    7     1      -0.5121613909E-03       4    7    1        -0.2762419259E-01      0.8075057037E-01
          0                 3           1             4    7     1       0.3487628669E-04       4    7    1         0.1933693949E-02      0.5601458391E-02

    ------------------------------------------------
       NWT REQUIRED            3 OUTER ITERATIONS 
       AND A TOTAL OF          5 INNER ITERATIONS.
    ------------------------------------------------

 NO OUTPUT CONTROL FOR STRESS PERIOD   27   TIME STEP    7
 
 SOLVING FOR HEAD 
                                                   Max.-Head-Change                         Max.-Flux-Residual
  Residual-Control   Outer-Iter.   Inner-Iter.     Column Row Layer    Maximum-Head-Change  Column Row Layer    Maximum-Flux-Residual          L2-NORM 
          0                 1           2             4    7     1       0.5214693047E-02       4    7    1         0.2735729037E+00      0.7936248604E+00
          0                 2           2             4    7     1      -0.5072480106E-03       4    7    1        -0.2735732935E-01      0.7887749719E-01
          0                 3           1             4    7     1       0.3454170334E-04       4    7    1         0.1915013515E-02      0.5477190561E-02

    ------------------------------------------------
       NWT REQUIRED            3 OUTER ITERATIONS 
       AND A TOTAL OF          5 INNER ITERATIONS.
    ------------------------------------------------

 NO OUTPUT CONTROL FOR STRESS PERIOD   27   TIME STEP    8
 
 SOLVING FOR HEAD 
                                                   Max.-Head-Change                         Max.-Flux-Residual
  Residual-Control   Outer-Iter.   Inner-Iter.     Column Row Layer    Maximum-Head-Change  Column Row Layer    Maximum-Flux-Residual          L2-NORM 
          0                 1           2             4    7     1       0.5165114841E-02       4    7    1         0.2709539530E+00      0.7761657140E+00
          0                 2           2             4    7     1      -0.5024253889E-03       4    7    1        -0.2709543333E-01      0.7719377924E-01
          0                 3           1             4    7     1       0.3421330119E-04       4    7    1         0.1896680791E-02      0.5364787504E-02

    ------------------------------------------------
       NWT REQUIRED            3 OUTER ITERATIONS 
       AND A TOTAL OF          5 INNER ITERATIONS.
    ------------------------------------------------

 NO OUTPUT CONTROL FOR STRESS PERIOD   27   TIME STEP    9
 
 SOLVING FOR HEAD 
                                                   Max.-Head-Change                         Max.-Flux-Residual
  Residual-Control   Outer-Iter.   Inner-Iter.     Column Row Layer    Maximum-Head-Change  Column Row Layer    Maximum-Flux-Residual          L2-NORM 
          0                 1           2             4    7     1       0.5116163207E-02       4    7    1         0.2683685908E+00      0.7604060293E+00
          0                 2           2             4    7     1      -0.4976637170E-03       4    7    1        -0.2683689623E-01      0.7567289092E-01
          0                 3           1             4    7     1       0.3388904934E-04       4    7    1         0.1878583197E-02      0.5263158018E-02

    ------------------------------------------------
       NWT REQUIRED            3 OUTER ITERATIONS 
       AND A TOTAL OF          5 INNER ITERATIONS.
    ------------------------------------------------

 NO OUTPUT CONTROL FOR STRESS PERIOD   27   TIME STEP   10
 
 SOLVING FOR HEAD 
                                                   Max.-Head-Change                         Max.-Flux-Residual
  Residual-Control   Outer-Iter.   Inner-Iter.     Column Row Layer    Maximum-Head-Change  Column Row Layer    Maximum-Flux-Residual          L2-NORM 
          0                 1           2             4    7     1       0.5068099423E-02       4    7    1         0.2658305034E+00      0.7461603846E+00
          0                 2           2             4    7     1      -0.4929884087E-03       4    7    1        -0.2658308662E-01      0.7429601646E-01
          0                 3           1             4    7     1       0.3357067835E-04       4    7    1         0.1860816532E-02      0.5171098527E-02

    ------------------------------------------------
       NWT REQUIRED            3 OUTER ITERATIONS 
       AND A TOTAL OF          5 INNER ITERATIONS.
    ------------------------------------------------

 NO OUTPUT CONTROL FOR STRESS PERIOD   27   TIME STEP   11
 
 SOLVING FOR HEAD 
                                                   Max.-Head-Change                         Max.-Flux-Residual
  Residual-Control   Outer-Iter.   Inner-Iter.     Column Row Layer    Maximum-Head-Change  Column Row Layer    Maximum-Flux-Residual          L2-NORM 
          0                 1           2             4    7     1       0.5020894150E-02       4    7    1         0.2633384498E+00      0.7332199706E+00
          0                 2           2             4    7     1      -0.4883966100E-03       4    7    1        -0.2633388041E-01      0.7304373712E-01
          0                 3           1             4    7     1       0.3325799414E-04       4    7    1         0.1843372090E-02      0.5087251078E-02

    ------------------------------------------------
       NWT REQUIRED            3 OUTER ITERATIONS 
       AND A TOTAL OF          5 INNER ITERATIONS.
    ------------------------------------------------

 NO OUTPUT CONTROL FOR STRESS PERIOD   27   TIME STEP   12
 
 SOLVING FOR HEAD 
                                                   Max.-Head-Change                         Max.-Flux-Residual
  Residual-Control   Outer-Iter.   Inner-Iter.     Column Row Layer    Maximum-Head-Change  Column Row Layer    Maximum-Flux-Residual          L2-NORM 
          0                 1           2             4    7     1       0.4974259488E-02       4    7    1         0.2608761206E+00      0.7214224573E+00
          0                 2           2             4    7     1      -0.4838603169E-03       4    7    1        -0.2608764666E-01      0.7190110687E-01
          0                 3           1             4    7     1       0.3294908937E-04       4    7    1         0.1826135730E-02      0.5011108026E-02

    ------------------------------------------------
       NWT REQUIRED            3 OUTER ITERATIONS 
       AND A TOTAL OF          5 INNER ITERATIONS.
    ------------------------------------------------

 NO OUTPUT CONTROL FOR STRESS PERIOD   27   TIME STEP   13
 
 SOLVING FOR HEAD 
                                                   Max.-Head-Change                         Max.-Flux-Residual
  Residual-Control   Outer-Iter.   Inner-Iter.     Column Row Layer    Maximum-Head-Change  Column Row Layer    Maximum-Flux-Residual          L2-NORM 
          0                 1           2             4    7     1       0.4928447785E-02       4    7    1         0.2584581653E+00      0.7106017797E+00
          0                 2           2             4    7     1      -0.4794040757E-03       4    7    1        -0.2584585034E-01      0.7084996792E-01
          0                 3           1             4    7     1       0.3264563590E-04       4    7    1         0.1809209982E-02      0.4939407627E-02

    ------------------------------------------------
       NWT REQUIRED            3 OUTER ITERATIONS 
       AND A TOTAL OF          5 INNER ITERATIONS.
    ------------------------------------------------

 NO OUTPUT CONTROL FOR STRESS PERIOD   27   TIME STEP   14
 
 SOLVING FOR HEAD 
                                                   Max.-Head-Change                         Max.-Flux-Residual
  Residual-Control   Outer-Iter.   Inner-Iter.     Column Row Layer    Maximum-Head-Change  Column Row Layer    Maximum-Flux-Residual          L2-NORM 
          0                 1           2             4    7     1       0.4883438582E-02       4    7    1         0.2560828793E+00      0.7006572218E+00
          0                 2           2             4    7     1      -0.4750258965E-03       4    7    1        -0.2560832097E-01      0.6988278089E-01
          0                 3           1             4    7     1       0.3234749834E-04       4    7    1         0.1792582939E-02      0.4874290671E-02

    ------------------------------------------------
       NWT REQUIRED            3 OUTER ITERATIONS 
       AND A TOTAL OF          5 INNER ITERATIONS.
    ------------------------------------------------

 NO OUTPUT CONTROL FOR STRESS PERIOD   27   TIME STEP   15
 
 SOLVING FOR HEAD 
                                                   Max.-Head-Change                         Max.-Flux-Residual
  Residual-Control   Outer-Iter.   Inner-Iter.     Column Row Layer    Maximum-Head-Change  Column Row Layer    Maximum-Flux-Residual          L2-NORM 
          0                 1           2             4    7     1       0.4839205549E-02       4    7    1         0.2537492019E+00      0.6914388536E+00
          0                 2           2             4    7     1      -0.4707232176E-03       4    7    1        -0.2537495249E-01      0.6898823804E-01
          0                 3           1             4    7     1       0.3205450203E-04       4    7    1         0.1776247143E-02      0.4816774172E-02

    ------------------------------------------------
       NWT REQUIRED            3 OUTER ITERATIONS 
       AND A TOTAL OF          5 INNER ITERATIONS.
    ------------------------------------------------

 NO OUTPUT CONTROL FOR STRESS PERIOD   27   TIME STEP   16
 
 SOLVING FOR HEAD 
                                                   Max.-Head-Change                         Max.-Flux-Residual
  Residual-Control   Outer-Iter.   Inner-Iter.     Column Row Layer    Maximum-Head-Change  Column Row Layer    Maximum-Flux-Residual          L2-NORM 
          0                 1           2             4    7     1       0.4795459901E-02       4    7    1         0.2514409789E+00      0.6828953165E+00
          0                 2           2             4    7     1      -0.4664679484E-03       4    7    1        -0.2514412948E-01      0.6815244379E-01
          0                 3           1             4    7     1       0.3176473395E-04       4    7    1         0.1760089524E-02      0.4758038076E-02

    ------------------------------------------------
       NWT REQUIRED            3 OUTER ITERATIONS 
       AND A TOTAL OF          5 INNER ITERATIONS.
    ------------------------------------------------

 NO OUTPUT CONTROL FOR STRESS PERIOD   27   TIME STEP   17
 
 SOLVING FOR HEAD 
                                                   Max.-Head-Change                         Max.-Flux-Residual
  Residual-Control   Outer-Iter.   Inner-Iter.     Column Row Layer    Maximum-Head-Change  Column Row Layer    Maximum-Flux-Residual          L2-NORM 
          0                 1           2             4    7     1       0.4752190520E-02       4    7    1         0.2491580260E+00      0.6749243463E+00
          0                 2           2             4    7     1      -0.4622590069E-03       4    7    1        -0.2491583349E-01      0.6737311417E-01
          0                 3           1             4    7     1       0.3147812097E-04       4    7    1         0.1744108803E-02      0.4705318562E-02

    ------------------------------------------------
       NWT REQUIRED            3 OUTER ITERATIONS 
       AND A TOTAL OF          5 INNER ITERATIONS.
    ------------------------------------------------

 NO OUTPUT CONTROL FOR STRESS PERIOD   27   TIME STEP   18
 
 SOLVING FOR HEAD 
                                                   Max.-Head-Change                         Max.-Flux-Residual
  Residual-Control   Outer-Iter.   Inner-Iter.     Column Row Layer    Maximum-Head-Change  Column Row Layer    Maximum-Flux-Residual          L2-NORM 
          0                 1           2             4    7     1       0.4709927669E-02       4    7    1         0.2469293455E+00      0.6674542455E+00
          0                 2           2             4    7     1      -0.4581479743E-03       4    7    1        -0.2469296476E-01      0.6664216866E-01
          0                 3           1             4    7     1       0.3119817506E-04       4    7    1         0.1728507996E-02      0.4655598135E-02

    ------------------------------------------------
       NWT REQUIRED            3 OUTER ITERATIONS 
       AND A TOTAL OF          5 INNER ITERATIONS.
    ------------------------------------------------

 NO OUTPUT CONTROL FOR STRESS PERIOD   27   TIME STEP   19
 
 SOLVING FOR HEAD 
                                                   Max.-Head-Change                         Max.-Flux-Residual
  Residual-Control   Outer-Iter.   Inner-Iter.     Column Row Layer    Maximum-Head-Change  Column Row Layer    Maximum-Flux-Residual          L2-NORM 
          0                 1           2             4    7     1       0.4668103951E-02       4    7    1         0.2447232734E+00      0.6629668604E+00
          0                 2           2             4    7     1      -0.4540796570E-03       4    7    1        -0.2447235689E-01      0.6667947502E-01
          0                 3           1             4    7     1       0.3092113669E-04       4    7    1         0.1713065427E-02      0.4829824784E-02

    ------------------------------------------------
       NWT REQUIRED            3 OUTER ITERATIONS 
       AND A TOTAL OF          5 INNER ITERATIONS.
    ------------------------------------------------

 NO OUTPUT CONTROL FOR STRESS PERIOD   27   TIME STEP   20
 
 SOLVING FOR HEAD 
                                                   Max.-Head-Change                         Max.-Flux-Residual
  Residual-Control   Outer-Iter.   Inner-Iter.     Column Row Layer    Maximum-Head-Change  Column Row Layer    Maximum-Flux-Residual          L2-NORM 
          0                 1           2             4    7     1       0.4626983151E-02       4    7    1         0.2425547594E+00      0.6585362371E+00
          0                 2           2             4    7     1      -0.4500797147E-03       4    7    1        -0.2425550483E-01      0.6635244221E-01
          0                 3           1             4    7     1       0.3064875581E-04       4    7    1         0.1697885794E-02      0.4850558264E-02

    ------------------------------------------------
       NWT REQUIRED            3 OUTER ITERATIONS 
       AND A TOTAL OF          5 INNER ITERATIONS.
    ------------------------------------------------

 NO OUTPUT CONTROL FOR STRESS PERIOD   27   TIME STEP   21
 
 SOLVING FOR HEAD 
                                                   Max.-Head-Change                         Max.-Flux-Residual
  Residual-Control   Outer-Iter.   Inner-Iter.     Column Row Layer    Maximum-Head-Change  Column Row Layer    Maximum-Flux-Residual          L2-NORM 
          0                 1           2             4    7     1       0.4586273043E-02       4    7    1         0.2404079011E+00      0.6512275083E+00
          0                 2           2             4    7     1      -0.4461197219E-03       4    7    1        -0.2404081835E-01      0.6551779026E-01
          0                 3           1             4    7     1       0.3037909526E-04       4    7    1         0.1682857742E-02      0.4750778955E-02

    ------------------------------------------------
       NWT REQUIRED            3 OUTER ITERATIONS 
       AND A TOTAL OF          5 INNER ITERATIONS.
    ------------------------------------------------

 NO OUTPUT CONTROL FOR STRESS PERIOD   27   TIME STEP   22
 
 SOLVING FOR HEAD 
                                                   Max.-Head-Change                         Max.-Flux-Residual
  Residual-Control   Outer-Iter.   Inner-Iter.     Column Row Layer    Maximum-Head-Change  Column Row Layer    Maximum-Flux-Residual          L2-NORM 
          0                 1           2             4    7     1       0.4546240486E-02       4    7    1         0.2382971263E+00      0.6444326516E+00
          0                 2           2             4    7     1      -0.4422256369E-03       4    7    1        -0.2382974029E-01      0.6475619510E-01
          0                 3           1             4    7     1       0.3011392250E-04       4    7    1         0.1668082271E-02      0.4664565768E-02

    ------------------------------------------------
       NWT REQUIRED            3 OUTER ITERATIONS 
       AND A TOTAL OF          5 INNER ITERATIONS.
    ------------------------------------------------

 NO OUTPUT CONTROL FOR STRESS PERIOD   27   TIME STEP   23
 
 SOLVING FOR HEAD 
                                                   Max.-Head-Change                         Max.-Flux-Residual
  Residual-Control   Outer-Iter.   Inner-Iter.     Column Row Layer    Maximum-Head-Change  Column Row Layer    Maximum-Flux-Residual          L2-NORM 
          0                 1           2             4    7     1       0.4506859487E-02       4    7    1         0.2362214818E+00      0.6380925943E+00
          0                 2           2             4    7     1      -0.4383949309E-03       4    7    1        -0.2362217523E-01      0.6405666117E-01
          0                 3           1             4    7     1       0.2985306619E-04       4    7    1         0.1653552723E-02      0.4589196726E-02

    ------------------------------------------------
       NWT REQUIRED            3 OUTER ITERATIONS 
       AND A TOTAL OF          5 INNER ITERATIONS.
    ------------------------------------------------

 NO OUTPUT CONTROL FOR STRESS PERIOD   27   TIME STEP   24
 
 SOLVING FOR HEAD 
                                                   Max.-Head-Change                         Max.-Flux-Residual
  Residual-Control   Outer-Iter.   Inner-Iter.     Column Row Layer    Maximum-Head-Change  Column Row Layer    Maximum-Flux-Residual          L2-NORM 
          0                 1           2             4    7     1       0.4468122039E-02       4    7    1         0.2341796196E+00      0.6321383553E+00
          0                 2           2             4    7     1      -0.4346268248E-03       4    7    1        -0.2341798843E-01      0.6340967365E-01
          0                 3           1             4    7     1       0.2959647189E-04       4    7    1         0.1639259638E-02      0.4523027791E-02

    ------------------------------------------------
       NWT REQUIRED            3 OUTER ITERATIONS 
       AND A TOTAL OF          5 INNER ITERATIONS.
    ------------------------------------------------

 NO OUTPUT CONTROL FOR STRESS PERIOD   27   TIME STEP   25
 
 SOLVING FOR HEAD 
                                                   Max.-Head-Change                         Max.-Flux-Residual
  Residual-Control   Outer-Iter.   Inner-Iter.     Column Row Layer    Maximum-Head-Change  Column Row Layer    Maximum-Flux-Residual          L2-NORM 
          0                 1           2             4    7     1       0.4429732104E-02       4    7    1         0.2321563345E+00      0.6264882962E+00
          0                 2           2             4    7     1      -0.4308925233E-03       4    7    1        -0.2321565938E-01      0.6280324159E-01
          0                 3           1             4    7     1       0.2934218043E-04       4    7    1         0.1625096636E-02      0.4463188003E-02

    ------------------------------------------------
       NWT REQUIRED            3 OUTER ITERATIONS 
       AND A TOTAL OF          5 INNER ITERATIONS.
    ------------------------------------------------

 NO OUTPUT CONTROL FOR STRESS PERIOD   27   TIME STEP   26
 
 SOLVING FOR HEAD 
                                                   Max.-Head-Change                         Max.-Flux-Residual
  Residual-Control   Outer-Iter.   Inner-Iter.     Column Row Layer    Maximum-Head-Change  Column Row Layer    Maximum-Flux-Residual          L2-NORM 
          0                 1           2             4    7     1       0.4391963106E-02       4    7    1         0.2301658578E+00      0.6211240828E+00
          0                 2           2             4    7     1      -0.4272186212E-03       4    7    1        -0.2301661116E-01      0.6223295801E-01
          0                 3           1             4    7     1       0.2909200092E-04       4    7    1         0.1611163227E-02      0.4409267791E-02

    ------------------------------------------------
       NWT REQUIRED            3 OUTER ITERATIONS 
       AND A TOTAL OF          5 INNER ITERATIONS.
    ------------------------------------------------

 NO OUTPUT CONTROL FOR STRESS PERIOD   27   TIME STEP   27
 
 SOLVING FOR HEAD 
                                                   Max.-Head-Change                         Max.-Flux-Residual
  Residual-Control   Outer-Iter.   Inner-Iter.     Column Row Layer    Maximum-Head-Change  Column Row Layer    Maximum-Flux-Residual          L2-NORM 
          0                 1           2             4    7     1       0.4354798917E-02       4    7    1         0.2282075760E+00      0.6160018624E+00
          0                 2           2             4    7     1      -0.4236058809E-03       4    7    1        -0.2282078244E-01      0.6169820000E-01
          0                 3           1             4    7     1       0.2884598710E-04       4    7    1         0.1597455228E-02      0.4361122431E-02

    ------------------------------------------------
       NWT REQUIRED            3 OUTER ITERATIONS 
       AND A TOTAL OF          5 INNER ITERATIONS.
    ------------------------------------------------

 NO OUTPUT CONTROL FOR STRESS PERIOD   27   TIME STEP   28
 
 SOLVING FOR HEAD 
                                                   Max.-Head-Change                         Max.-Flux-Residual
  Residual-Control   Outer-Iter.   Inner-Iter.     Column Row Layer    Maximum-Head-Change  Column Row Layer    Maximum-Flux-Residual          L2-NORM 
          0                 1           2             4    7     1       0.4317934370E-02       4    7    1         0.2262657382E+00      0.6110870233E+00
          0                 2           2             4    7     1      -0.4200176290E-03       4    7    1        -0.2262659817E-01      0.6118394958E-01
          0                 3           1             4    7     1       0.2860164065E-04       4    7    1         0.1583862329E-02      0.4316837154E-02

    ------------------------------------------------
       NWT REQUIRED            3 OUTER ITERATIONS 
       AND A TOTAL OF          5 INNER ITERATIONS.
    ------------------------------------------------

 NO OUTPUT CONTROL FOR STRESS PERIOD   27   TIME STEP   29
 
 SOLVING FOR HEAD 
                                                   Max.-Head-Change                         Max.-Flux-Residual
  Residual-Control   Outer-Iter.   Inner-Iter.     Column Row Layer    Maximum-Head-Change  Column Row Layer    Maximum-Flux-Residual          L2-NORM 
          0                 1           2             4    7     1       0.4281652743E-02       4    7    1         0.2243544746E+00      0.6071314073E+00
          0                 2           2             4    7     1      -0.4164884084E-03       4    7    1        -0.2243547131E-01      0.6087000608E-01
          0                 3           1             4    7     1       0.2836131385E-04       4    7    1         0.1570483437E-02      0.4331366329E-02

    ------------------------------------------------
       NWT REQUIRED            3 OUTER ITERATIONS 
       AND A TOTAL OF          5 INNER ITERATIONS.
    ------------------------------------------------

 NO OUTPUT CONTROL FOR STRESS PERIOD   27   TIME STEP   30



 STREAM LISTING     PERIOD     27   STEP       30

 LAYER ROW COL. STREAM  RCH.  FLOW INTO     FLOW TO   FLOW OUT OF   OVRLND.     DIRECT     STREAM       STREAM     STREAM     STREAM   STREAMBED  STREAMBED
                SEG.NO.  NO.  STRM. RCH.    AQUIFER    STRM. RCH.    RUNOFF     PRECIP       ET          HEAD       DEPTH      WIDTH   CONDCTNC.   GRADIENT

   1    1    1     1     1    3.1499E+01  2.7310E-01   3.1226E+01  0.000E+00  0.000E+00  0.000E+00  1.09431E+03  1.262E+00  1.424E+01  6.407E-02  1.421E+00
   1    2    2     1     2    3.1226E+01  4.2272E-01   3.0803E+01  0.000E+00  0.000E+00  0.000E+00  1.08932E+03  1.259E+00  1.418E+01  9.925E-02  1.420E+00
   1    3    3     1     3    3.0803E+01  3.6028E-01   3.0443E+01  0.000E+00  0.000E+00  0.000E+00  1.08367E+03  1.256E+00  1.411E+01  8.466E-02  1.419E+00
   1    3    4     1     4    3.0443E+01  3.3158E-01   3.0111E+01  0.000E+00  0.000E+00  0.000E+00  1.07866E+03  1.253E+00  1.405E+01  7.797E-02  1.418E+00
   1    4    5     2     1    2.8111E+01  3.3470E-01   2.7777E+01  0.000E+00  0.000E+00  0.000E+00  1.07322E+03  1.291E+00  1.200E+01  7.800E-02  1.430E+00
   1    5    6     2     2    2.7777E+01  2.5697E-01   2.7520E+01  0.000E+00  0.000E+00  0.000E+00  1.06779E+03  1.283E+00  1.200E+01  6.000E-02  1.428E+00
   1    6    6     2     3    2.7520E+01  2.5654E-01   2.7263E+01  0.000E+00  0.000E+00  0.000E+00  1.06307E+03  1.276E+00  1.200E+01  6.000E-02  1.425E+00
   1    7    6     2     4    2.7263E+01  2.5611E-01   2.7007E+01  0.000E+00  0.000E+00  0.000E+00  1.05834E+03  1.268E+00  1.200E+01  6.000E-02  1.423E+00
   1    8    6     2     5    2.7007E+01  2.5567E-01   2.6751E+01  0.000E+00  0.000E+00  0.000E+00  1.05362E+03  1.261E+00  1.200E+01  6.000E-02  1.420E+00
   1    3    5     3     1    2.0000E+00  2.8252E-01   1.7175E+00  0.000E+00  0.000E+00  0.000E+00  1.07555E+03  1.909E+00  9.636E+00  7.227E-02  1.955E+00
   1    3    6     3     2    1.7175E+00  2.4905E-01   1.4684E+00  0.000E+00  0.000E+00  0.000E+00  1.07264E+03  1.727E+00  8.909E+00  6.682E-02  1.864E+00
   1    3    7     3     3    1.4684E+00  1.9718E-01   1.2712E+00  0.000E+00  0.000E+00  0.000E+00  1.06987E+03  1.555E+00  8.218E+00  5.547E-02  1.777E+00
   1    4    8     3     4    1.2712E+00  2.2567E-01   1.0456E+00  0.000E+00  0.000E+00  0.000E+00  1.06682E+03  1.364E+00  7.455E+00  6.709E-02  1.682E+00
   1    5    8     3     5    1.0456E+00  1.5790E-01   8.8768E-01  0.000E+00  0.000E+00  0.000E+00  1.06362E+03  1.164E+00  6.655E+00  4.991E-02  1.582E+00
   1    6    8     3     6    8.8768E-01  5.5980E-02   8.3170E-01  0.000E+00  0.000E+00  0.000E+00  1.06158E+03  1.036E+00  6.145E+00  1.844E-02  1.518E+00
   1    5   10     4     1    1.0000E+01  9.0919E-02   9.9091E+00  0.000E+00  0.000E+00  0.000E+00  1.07836E+03  6.368E-01  1.000E+01  2.500E-02  1.212E+00
   1    5    9     4     2    9.9091E+00  1.8158E-01   9.7275E+00  0.000E+00  0.000E+00  0.000E+00  1.07154E+03  6.315E-01  1.000E+01  5.000E-02  1.211E+00
   1    6    8     4     3    9.7275E+00  1.2689E-01   9.6006E+00  0.000E+00  0.000E+00  0.000E+00  1.06381E+03  6.256E-01  1.000E+01  3.500E-02  1.209E+00
   1    6    8     5     1    1.0432E+01  2.2686E-01   1.0205E+01  0.000E+00  0.000E+00  0.000E+00  1.05868E+03  6.790E-01  1.542E+01  6.166E-02  1.226E+00
   1    7    7     5     2    1.0205E+01  2.7894E-01   9.9265E+00  0.000E+00  0.000E+00  0.000E+00  1.05417E+03  6.732E-01  1.519E+01  7.594E-02  1.224E+00
   1    8    7     5     3    9.9265E+00  1.9221E-01   9.7343E+00  0.000E+00  0.000E+00  0.000E+00  1.04992E+03  6.676E-01  1.497E+01  5.241E-02  1.223E+00
   1    8    6     5     4    9.7343E+00  1.3577E-01   9.5985E+00  0.000E+00  0.000E+00  0.000E+00  1.04691E+03  6.637E-01  1.482E+01  3.706E-02  1.221E+00
   1    9    6     6     1    3.6350E+01  2.7151E-01   3.6078E+01  0.000E+00  0.000E+00  0.000E+00  1.04425E+03  1.525E+00  1.200E+01  6.000E-02  1.508E+00
   1   10    7     6     2    3.6078E+01  2.7109E-01   3.5807E+01  0.000E+00  0.000E+00  0.000E+00  1.03970E+03  1.518E+00  1.200E+01  6.000E-02  1.506E+00
   1   11    7     6     3    3.5807E+01  2.7068E-01   3.5537E+01  0.000E+00  0.000E+00  0.000E+00  1.03515E+03  1.511E+00  1.200E+01  6.000E-02  1.504E+00
   1   12    7     6     4    3.5537E+01  2.7027E-01   3.5266E+01  0.000E+00  0.000E+00  0.000E+00  1.03060E+03  1.504E+00  1.200E+01  6.000E-02  1.501E+00
   1   13    7     6     5    3.5266E+01  7.7287E-03   3.5259E+01  0.000E+00  0.000E+00  0.000E+00  1.02741E+03  1.501E+00  1.200E+01  2.400E-02  1.073E-01
   1   14    9     7     1    1.5000E+02  1.3378E+00   1.4866E+02  0.000E+00  0.000E+00  0.000E+00  1.03987E+03  2.288E+00  5.529E+01  5.593E-01  7.973E-01
   1   13    8     7     2    1.4866E+02  1.8326E+00   1.4683E+02  0.000E+00  0.000E+00  0.000E+00  1.03478E+03  2.279E+00  5.526E+01  6.148E-01  9.937E-01
   1   13    7     7     3    1.4683E+02  1.4530E+00   1.4538E+02  0.000E+00  0.000E+00  0.000E+00  1.02969E+03  2.271E+00  5.522E+01  5.585E-01  8.673E-01
   1   13    6     8     1    1.8064E+02  9.4794E-01   1.7969E+02  0.000E+00  0.000E+00  0.000E+00  1.02489E+03  3.017E+00  4.375E+01  4.458E-01  7.088E-01
   1   13    5     8     2    1.7969E+02  1.8216E-01   1.7951E+02  0.000E+00  0.000E+00  0.000E+00  1.01864E+03  3.014E+00  4.370E+01  4.453E-01  1.364E-01
   1   13    4     8     3    1.7951E+02 -2.4476E+00   1.8195E+02  0.000E+00  0.000E+00  0.000E+00  1.01240E+03  3.021E+00  4.380E+01  4.463E+00 -1.828E-01
   1   13    3     8     4    1.8195E+02 -3.6601E+00   1.8561E+02  0.000E+00  0.000E+00  0.000E+00  1.00616E+03  3.040E+00  4.408E+01  4.492E+00 -2.716E-01
   1   13    2     8     5    1.8561E+02 -2.5300E+00   1.8814E+02  0.000E+00  0.000E+00  0.000E+00  9.99934E+02  3.059E+00  4.435E+01  4.520E+00 -1.866E-01
   1   13    1     8     6    1.8814E+02 -1.9290E+00   1.9007E+02  0.000E+00  0.000E+00  0.000E+00  9.94948E+02  3.073E+00  4.455E+01  2.724E+00 -2.360E-01
   1    8    6     9     1    0.0000E+00  0.0000E+00   0.0000E+00  0.000E+00  0.000E+00  0.000E+00  1.07875E+03  0.000E+00  4.000E+00  0.000E+00  1.000E+00
   1    8    5     9     2    0.0000E+00  0.0000E+00   0.0000E+00  0.000E+00  0.000E+00  0.000E+00  1.07825E+03  0.000E+00  4.000E+00  0.000E+00  1.000E+00





UNSATURATED ZONE PACKAGE VOLUMETRIC BUDGET FOR  TIME STEP    30 STRESS PERIOD   27
  ------------------------------------------------------------------------------



     CUMULATIVE VOLUMES      L**3       RATES FOR THIS TIME STEP      L**3/T
     ------------------                 ------------------------

           IN:                                      IN:
           ---                                      ---
        INFILTRATION =  1100233042.8777          INFILTRATION =           4.4075

          OUT:                                     OUT:
          ----                                     ----
              UZF ET =  1001269898.4618                UZF ET =           0.7250
        UZF RECHARGE =      712473.7312          UZF RECHARGE =           0.0767

            IN - OUT =    98250670.6847              IN - OUT =           3.6058

          STORAGE:                                 STORAGE:
          --------                                 --------
      STORAGE CHANGE =    98251261.0327        STORAGE CHANGE =           3.6058

 PERCENT DISCREPANCY IS DIFFERENCE BETWEEN IN-OUT MINUS CHANGE IN STORAGE
 DIVIDED BY THE AVERAGE OF IN AND OUT TIMES 100

 PERCENT DISCREPANCY =          -0.00     PERCENT DISCREPANCY =           0.00






1
  VOLUMETRIC BUDGET FOR AGRICULTURAL FIELDS AT TIME STEP   30, STRESS PERIOD  27
  ------------------------------------------------------------------------------

     CUMULATIVE VOLUMES      L**3       RATES FOR THIS TIME STEP      L**3/T
     ------------------                 ------------------------

           IN:                                      IN:
           ---                                      ---
               AG WELLS  =   175546176.0000                 AG WELLS  =           0.0000
      DIVERSION SEGMENTS =   623216576.0000        DIVERSION SEGMENTS =           0.0000
           GW IRRIGATION =           0.0000             GW IRRIGATION =           0.0000
           SW IRRIGATION =           0.0000             SW IRRIGATION =           0.0000
        SYSTEM LOSSES GW =           0.0000          SYSTEM LOSSES GW =           0.0000
        SYSTEM LOSSES SW =           0.0000          SYSTEM LOSSES SW =           0.0000

                TOTAL IN =   798762752.0000                  TOTAL IN =           0.0000

          OUT:                                     OUT:
          ----                                     ----
               AG WELLS  =           0.0000                 AG WELLS  =           0.0000
      DIVERSION SEGMENTS =           0.0000        DIVERSION SEGMENTS =           0.0000
           GW IRRIGATION =   175546176.0000             GW IRRIGATION =           0.0000
           SW IRRIGATION =   623229888.0000             SW IRRIGATION =           0.0000
        SYSTEM LOSSES GW =           0.0000          SYSTEM LOSSES GW =           0.0000
        SYSTEM LOSSES SW =           0.0000          SYSTEM LOSSES SW =           0.0000

               TOTAL OUT =   798776064.0000                 TOTAL OUT =           0.0000

                IN - OUT =      -13312.0000                  IN - OUT =           0.0000

     PERCENT DISCREPANCY =          -0.00         PERCENT DISCREPANCY =           0.00



1
  VOLUMETRIC BUDGET FOR ENTIRE MODEL AT END OF TIME STEP   30, STRESS PERIOD  27
  ------------------------------------------------------------------------------

     CUMULATIVE VOLUMES      L**3       RATES FOR THIS TIME STEP      L**3/T
     ------------------                 ------------------------

           IN:                                      IN:
           ---                                      ---
             STORAGE     =   296101344.0000               STORAGE     =           1.2807
       CONSTANT HEAD     =           0.0000         CONSTANT HEAD     =           0.0000
     HEAD DEP BOUNDS     =    19565560.0000       HEAD DEP BOUNDS     =           0.2859
      STREAM LEAKAGE     =   809625856.0000        STREAM LEAKAGE     =          11.9939
        UZF RECHARGE     =      712473.6250          UZF RECHARGE     =       7.6722E-02
               GW ET     =           0.0000                 GW ET     =           0.0000
     SURFACE LEAKAGE     =           0.0000       SURFACE LEAKAGE     =           0.0000
           AG WELLS      =           0.0000             AG WELLS      =           0.0000

                TOTAL IN =  1126005248.0000                  TOTAL IN =          13.6372

          OUT:                                     OUT:
          ----                                     ----
             STORAGE     =   184583968.0000               STORAGE     =           2.7799
       CONSTANT HEAD     =           0.0000         CONSTANT HEAD     =           0.0000
     HEAD DEP BOUNDS     =    19888060.0000       HEAD DEP BOUNDS     =           0.2909
      STREAM LEAKAGE     =   743693952.0000        STREAM LEAKAGE     =          10.5666
        UZF RECHARGE     =           0.0000          UZF RECHARGE     =           0.0000
               GW ET     =     2260364.5000                 GW ET     =           0.0000
     SURFACE LEAKAGE     =           0.0000       SURFACE LEAKAGE     =           0.0000
           AG WELLS      =   175546176.0000             AG WELLS      =           0.0000

               TOTAL OUT =  1125972480.0000                 TOTAL OUT =          13.6374

                IN - OUT =       32768.0000                  IN - OUT =      -2.3270E-04

     PERCENT DISCREPANCY =           0.00         PERCENT DISCREPANCY =          -0.00






         TIME SUMMARY AT END OF TIME STEP   30 IN STRESS PERIOD   27
                    SECONDS     MINUTES      HOURS       DAYS        YEARS
                    -----------------------------------------------------------
   TIME STEP LENGTH  87667.      1461.1      24.352      1.0147     2.77799E-03
 STRESS PERIOD TIME 2.63000E+06  43833.      730.56      30.440     8.33397E-02
         TOTAL TIME 6.84668E+07 1.14111E+06  19019.      792.44      2.1696    
1
1
                            STRESS PERIOD NO.   28, LENGTH =   2630000.    
                            -----------------------------------------------

                              NUMBER OF TIME STEPS =    30

                               MULTIPLIER FOR DELT =     1.000

                            INITIAL TIME STEP SIZE =   87666.66    

 REUSING NON-PARAMETER GHB CELLS FROM LAST STRESS PERIOD

      2 GHB CELLS

 REUSING STREAM SEGMENT DATA FROM LAST STRESS PERIOD



            AREAL INFILTRATION RATE
 READING ON UNIT   19 WITH FORMAT: (10F4.0)            

            1           2           3           4           5           6           7           8           9          10
 ........................................................................................................................
   1   1.2000E-09   0.000       0.000       0.000       0.000       0.000       0.000       0.000       0.000       0.000    
   2   2.1000E-09  2.0000E-09  8.0000E-10  8.5000E-09   0.000       0.000       0.000       0.000       0.000       0.000    
   3   5.0000E-10  1.1000E-09  8.8000E-09  5.5000E-09   0.000       0.000       0.000       0.000       0.000       0.000    
   4   8.5000E-09  1.1000E-09  1.1000E-09  1.1000E-09  2.0000E-09   0.000       0.000       0.000       0.000       0.000    
   5   8.5000E-09  1.1000E-09  1.1000E-09  1.1000E-09  1.1000E-09   0.000       0.000       0.000       0.000       0.000    
   6   8.5000E-09  5.2000E-09  2.1000E-09  1.1000E-09  1.5000E-09   0.000       0.000       0.000       0.000       0.000    
   7   8.5000E-09  5.2000E-09  2.1000E-09  1.2000E-09  2.0000E-09   0.000       0.000       0.000       0.000       0.000    
   8   5.0000E-10  5.2000E-09  2.1000E-09  1.2000E-09  5.0000E-09   0.000       0.000       0.000       0.000       0.000    
   9   5.0000E-10  5.2000E-09  2.1000E-09  1.2000E-09  5.0000E-09   0.000       0.000       0.000       0.000       0.000    
  10   5.0000E-10  5.2000E-09  2.1000E-09  1.2000E-09  5.8000E-09   0.000       0.000       0.000       0.000       0.000    
  11   1.0000E-10  1.1000E-09  1.1000E-09  1.2000E-09  5.0000E-09   0.000       0.000       0.000       0.000       0.000    
  12   1.1000E-09  1.1000E-09  1.1000E-09  1.1000E-09  2.0000E-09   0.000       0.000       0.000       0.000       0.000    
  13   1.1000E-09  2.2000E-09  2.2000E-09  2.1000E-09  1.0000E-09   0.000       0.000       0.000       0.000       0.000    
  14   2.0000E-10  5.5000E-09  5.5000E-09  5.2000E-09  1.0000E-09   0.000       0.000       0.000       0.000       0.000    
  15    0.000      8.8000E-09  8.8000E-09   0.000       0.000       0.000       0.000       0.000       0.000       0.000    

                  ET RATE =  5.000000E-10

 USING ET EXTINCTION DEPTH FROM PREVIOUS STRESS PERIOD. CURRENT PERIOD IS:      28

 USING EXTINCTION WATER CONTENT FROM PREVIOUS STRESS PERIOD. CURRENT PERIOD IS:      28

 USING AIR ENTRY PRESSURE FROM PREVIOUS STRESS PERIOD. CURRENT PERIOD IS:      28

 USING ROOT PRESSURE HEAD FROM PREVIOUS STRESS PERIOD. CURRENT PERIOD IS:      28

 USING ROOT ACTIVITY FROM PREVIOUS STRESS PERIOD. CURRENT PERIOD IS:      28

 PROCESSING AG STRESS PERIOD DATA

 READING AG STRESS PERIOD DATA

 READING IRRIGATION SEGMENT

 READING IRRIGATION WELL

 READING SUPPLEMENTAL WELL

 END PROCESSING AG STRESS PERIOD DATA OPTIONS
 
 SOLVING FOR HEAD 
                                                   Max.-Head-Change                         Max.-Flux-Residual
  Residual-Control   Outer-Iter.   Inner-Iter.     Column Row Layer    Maximum-Head-Change  Column Row Layer    Maximum-Flux-Residual          L2-NORM 
          0                 1           2             4   13     1       0.7310016158E-02       4   13    1         0.4205349170E+00      0.9689570261E+00
          0                 2           2             4   13     1       0.9333134240E-03       4   13    1         0.5388392081E-01      0.1064196701E+00
          0                 3           1             4   13     1       0.1190893448E-03       4   13    1         0.6854536885E-02      0.1078414366E-01
          0                 4           1             4   13     1       0.1521836809E-04       4   13    1         0.8767169211E-03      0.1218953765E-02

    ------------------------------------------------
       NWT REQUIRED            4 OUTER ITERATIONS 
       AND A TOTAL OF          6 INNER ITERATIONS.
    ------------------------------------------------

 NO OUTPUT CONTROL FOR STRESS PERIOD   28   TIME STEP    1
 
 SOLVING FOR HEAD 
                                                   Max.-Head-Change                         Max.-Flux-Residual
  Residual-Control   Outer-Iter.   Inner-Iter.     Column Row Layer    Maximum-Head-Change  Column Row Layer    Maximum-Flux-Residual          L2-NORM 
          0                 1           2             4   13     1       0.1027350523E-01       4   13    1         0.5914708731E+00      0.1248834771E+01
          0                 2           2             4   13     1       0.1306600925E-02       4   13    1         0.7551880290E-01      0.1396536157E+00
          0                 3           2             4   13     1       0.1661895394E-03       4   13    1         0.9572893360E-02      0.1480411795E-01
          0                 4           1             4   13     1       0.2120838689E-04       4   13    1         0.1222941244E-02      0.1729902919E-02

    ------------------------------------------------
       NWT REQUIRED            4 OUTER ITERATIONS 
       AND A TOTAL OF          7 INNER ITERATIONS.
    ------------------------------------------------

 NO OUTPUT CONTROL FOR STRESS PERIOD   28   TIME STEP    2
 
 SOLVING FOR HEAD 
                                                   Max.-Head-Change                         Max.-Flux-Residual
  Residual-Control   Outer-Iter.   Inner-Iter.     Column Row Layer    Maximum-Head-Change  Column Row Layer    Maximum-Flux-Residual          L2-NORM 
          0                 1           2             2   13     1       0.9162068492E-02       4   13    1         0.5188110473E+00      0.1168973291E+01
          0                 2           2             4   13     1       0.1150233670E-02       4   13    1         0.6650494573E-01      0.1294088852E+00
          0                 3           2             4   13     1       0.1465576754E-03       4   13    1         0.8438641930E-02      0.1339562953E-01
          0                 4           1             4   13     1       0.1873792507E-04       4   13    1         0.1080342593E-02      0.1540434605E-02

    ------------------------------------------------
       NWT REQUIRED            4 OUTER ITERATIONS 
       AND A TOTAL OF          7 INNER ITERATIONS.
    ------------------------------------------------

 NO OUTPUT CONTROL FOR STRESS PERIOD   28   TIME STEP    3
 
 SOLVING FOR HEAD 
                                                   Max.-Head-Change                         Max.-Flux-Residual
  Residual-Control   Outer-Iter.   Inner-Iter.     Column Row Layer    Maximum-Head-Change  Column Row Layer    Maximum-Flux-Residual          L2-NORM 
          0                 1           2             2   13     1       0.8470710114E-02       2   13    1         0.4787606568E+00      0.1099950387E+01
          0                 2           2             4   13     1       0.1008950580E-02       4   13    1         0.5835806840E-01      0.1204166736E+00
          0                 3           2             4   13     1       0.1282625681E-03       4   13    1         0.7381275888E-02      0.1213879774E-01
          0                 4           1             3   13     1       0.1677454600E-04       3   13    1         0.9623174255E-03      0.1367717292E-02

    ------------------------------------------------
       NWT REQUIRED            4 OUTER ITERATIONS 
       AND A TOTAL OF          7 INNER ITERATIONS.
    ------------------------------------------------

 NO OUTPUT CONTROL FOR STRESS PERIOD   28   TIME STEP    4
 
 SOLVING FOR HEAD 
                                                   Max.-Head-Change                         Max.-Flux-Residual
  Residual-Control   Outer-Iter.   Inner-Iter.     Column Row Layer    Maximum-Head-Change  Column Row Layer    Maximum-Flux-Residual          L2-NORM 
          0                 1           2             2   13     1       0.7829192658E-02       2   13    1         0.4425335194E+00      0.1040284307E+01
          0                 2           2             4   13     1       0.8885038657E-03       4   13    1         0.5141307083E-01      0.1127939127E+00
          0                 3           2             4   13     1       0.1132856593E-03       4   13    1         0.6516366911E-02      0.1108002225E-01
          0                 4           1             3   13     1       0.1501411703E-04       3   13    1         0.8614795206E-03      0.1221824783E-02

    ------------------------------------------------
       NWT REQUIRED            4 OUTER ITERATIONS 
       AND A TOTAL OF          7 INNER ITERATIONS.
    ------------------------------------------------

 NO OUTPUT CONTROL FOR STRESS PERIOD   28   TIME STEP    5
 
 SOLVING FOR HEAD 
                                                   Max.-Head-Change                         Max.-Flux-Residual
  Residual-Control   Outer-Iter.   Inner-Iter.     Column Row Layer    Maximum-Head-Change  Column Row Layer    Maximum-Flux-Residual          L2-NORM 
          0                 1           2             2   13     1       0.7234341360E-02       2   13    1         0.4089323789E+00      0.9886519769E+00
          0                 2           2             4   13     1       0.7834189184E-03       4   13    1         0.4535509312E-01      0.1061687834E+00
          0                 3           1             3   13     1       0.1010867504E-03       3   13    1         0.5766897764E-02      0.1014352116E-01
          0                 4           1             3   13     1       0.1340445188E-04       3   13    1         0.7692742720E-03      0.1089186728E-02

    ------------------------------------------------
       NWT REQUIRED            4 OUTER ITERATIONS 
       AND A TOTAL OF          6 INNER ITERATIONS.
    ------------------------------------------------

 NO OUTPUT CONTROL FOR STRESS PERIOD   28   TIME STEP    6
 
 SOLVING FOR HEAD 
                                                   Max.-Head-Change                         Max.-Flux-Residual
  Residual-Control   Outer-Iter.   Inner-Iter.     Column Row Layer    Maximum-Head-Change  Column Row Layer    Maximum-Flux-Residual          L2-NORM 
          0                 1           2             2   13     1       0.6683160687E-02       2   13    1         0.3777901353E+00      0.9439243920E+00
          0                 2           2             4   13     1       0.6907266704E-03       4   13    1         0.4001093109E-01      0.1004367220E+00
          0                 3           1             3   13     1       0.9040112919E-04       3   13    1         0.5156883828E-02      0.9325488456E-02

    ------------------------------------------------
       NWT REQUIRED            3 OUTER ITERATIONS 
       AND A TOTAL OF          5 INNER ITERATIONS.
    ------------------------------------------------

 NO OUTPUT CONTROL FOR STRESS PERIOD   28   TIME STEP    7
 
 SOLVING FOR HEAD 
                                                   Max.-Head-Change                         Max.-Flux-Residual
  Residual-Control   Outer-Iter.   Inner-Iter.     Column Row Layer    Maximum-Head-Change  Column Row Layer    Maximum-Flux-Residual          L2-NORM 
          0                 1           2             2   13     1       0.6172354357E-02       2   13    1         0.3489215066E+00      0.9051988153E+00
          0                 2           2             3   13     1       0.6107170448E-03       4   13    1         0.3536864851E-01      0.9552560707E-01
          0                 3           1             3   13     1       0.8122962614E-04       3   13    1         0.4633333827E-02      0.8640350702E-02

    ------------------------------------------------
       NWT REQUIRED            3 OUTER ITERATIONS 
       AND A TOTAL OF          5 INNER ITERATIONS.
    ------------------------------------------------

 NO OUTPUT CONTROL FOR STRESS PERIOD   28   TIME STEP    8
 
 SOLVING FOR HEAD 
                                                   Max.-Head-Change                         Max.-Flux-Residual
  Residual-Control   Outer-Iter.   Inner-Iter.     Column Row Layer    Maximum-Head-Change  Column Row Layer    Maximum-Flux-Residual          L2-NORM 
          0                 1           2             2   13     1       0.5699604497E-02       2   13    1         0.3221982004E+00      0.8715357389E+00
          0                 2           2             3   13     1       0.5482247723E-03       3   13    1         0.3171686839E-01      0.9132356554E-01
          0                 3           1             3   13     1       0.7286749030E-04       3   13    1         0.4155841508E-02      0.8041446992E-02

    ------------------------------------------------
       NWT REQUIRED            3 OUTER ITERATIONS 
       AND A TOTAL OF          5 INNER ITERATIONS.
    ------------------------------------------------

 NO OUTPUT CONTROL FOR STRESS PERIOD   28   TIME STEP    9
 
 SOLVING FOR HEAD 
                                                   Max.-Head-Change                         Max.-Flux-Residual
  Residual-Control   Outer-Iter.   Inner-Iter.     Column Row Layer    Maximum-Head-Change  Column Row Layer    Maximum-Flux-Residual          L2-NORM 
          0                 1           2             2   13     1       0.5262342158E-02       2   13    1         0.2974763149E+00      0.8421893600E+00
          0                 2           2             3   13     1       0.4914365410E-03       2   13    1        -0.2864762730E-01      0.8764200527E-01
          0                 3           1             3   13     1       0.6527580790E-04       3   13    1         0.3722315703E-02      0.7516942337E-02

    ------------------------------------------------
       NWT REQUIRED            3 OUTER ITERATIONS 
       AND A TOTAL OF          5 INNER ITERATIONS.
    ------------------------------------------------

 NO OUTPUT CONTROL FOR STRESS PERIOD   28   TIME STEP   10
 
 SOLVING FOR HEAD 
                                                   Max.-Head-Change                         Max.-Flux-Residual
  Residual-Control   Outer-Iter.   Inner-Iter.     Column Row Layer    Maximum-Head-Change  Column Row Layer    Maximum-Flux-Residual          L2-NORM 
          0                 1           2             2   13     1       0.4858008624E-02       2   13    1         0.2746123178E+00      0.8165465720E+00
          0                 2           2             2   13     1      -0.4492888130E-03       2   13    1        -0.2646884332E-01      0.8446069516E-01
          0                 3           1             3   13     1       0.5850781857E-04       3   13    1         0.3335810562E-02      0.7066832364E-02

    ------------------------------------------------
       NWT REQUIRED            3 OUTER ITERATIONS 
       AND A TOTAL OF          5 INNER ITERATIONS.
    ------------------------------------------------

 NO OUTPUT CONTROL FOR STRESS PERIOD   28   TIME STEP   11
 
 SOLVING FOR HEAD 
                                                   Max.-Head-Change                         Max.-Flux-Residual
  Residual-Control   Outer-Iter.   Inner-Iter.     Column Row Layer    Maximum-Head-Change  Column Row Layer    Maximum-Flux-Residual          L2-NORM 
          0                 1           2             2   13     1       0.4484230971E-02       2   13    1         0.2534729031E+00      0.7940553812E+00
          0                 2           2             2   13     1      -0.4151965575E-03       2   13    1        -0.2444972927E-01      0.8169809721E-01
          0                 3           1             3   13     1       0.5245331652E-04       3   13    1         0.2990025739E-02      0.6679723981E-02

    ------------------------------------------------
       NWT REQUIRED            3 OUTER ITERATIONS 
       AND A TOTAL OF          5 INNER ITERATIONS.
    ------------------------------------------------

 NO OUTPUT CONTROL FOR STRESS PERIOD   28   TIME STEP   12
 
 SOLVING FOR HEAD 
                                                   Max.-Head-Change                         Max.-Flux-Residual
  Residual-Control   Outer-Iter.   Inner-Iter.     Column Row Layer    Maximum-Head-Change  Column Row Layer    Maximum-Flux-Residual          L2-NORM 
          0                 1           2             2   13     1       0.4138999715E-02       2   13    1         0.2339454777E+00      0.7742574204E+00
          0                 2           2             2    2     1      -0.3857458472E-03       2   13    1        -0.2258237590E-01      0.7929801887E-01
          0                 3           1             3   13     1       0.4705942076E-04       3   13    1         0.2681974394E-02      0.6348139437E-02

    ------------------------------------------------
       NWT REQUIRED            3 OUTER ITERATIONS 
       AND A TOTAL OF          5 INNER ITERATIONS.
    ------------------------------------------------

 NO OUTPUT CONTROL FOR STRESS PERIOD   28   TIME STEP   13
 
 SOLVING FOR HEAD 
                                                   Max.-Head-Change                         Max.-Flux-Residual
  Residual-Control   Outer-Iter.   Inner-Iter.     Column Row Layer    Maximum-Head-Change  Column Row Layer    Maximum-Flux-Residual          L2-NORM 
          0                 1           2             2    2     1       0.3938159099E-02       2   13    1         0.2159034305E+00      0.7567500641E+00
          0                 2           2             2    2     1      -0.3830763093E-03       2   13    1        -0.2085583190E-01      0.7721126471E-01
          0                 3           1             3   13     1       0.4225896197E-04       3   13    1         0.2407768821E-02      0.6066546182E-02

    ------------------------------------------------
       NWT REQUIRED            3 OUTER ITERATIONS 
       AND A TOTAL OF          5 INNER ITERATIONS.
    ------------------------------------------------

 NO OUTPUT CONTROL FOR STRESS PERIOD   28   TIME STEP   14
 
 SOLVING FOR HEAD 
                                                   Max.-Head-Change                         Max.-Flux-Residual
  Residual-Control   Outer-Iter.   Inner-Iter.     Column Row Layer    Maximum-Head-Change  Column Row Layer    Maximum-Flux-Residual          L2-NORM 
          0                 1           2             2    2     1       0.3911097882E-02       2    2    1         0.2043231501E+00      0.7412271501E+00
          0                 2           2             2    2     1      -0.3804439762E-03       2    2    1        -0.2043236824E-01      0.7537927313E-01
          0                 3           1             3   13     1       0.3809320135E-04       3   13    1         0.2169891304E-02      0.5827982003E-02

    ------------------------------------------------
       NWT REQUIRED            3 OUTER ITERATIONS 
       AND A TOTAL OF          5 INNER ITERATIONS.
    ------------------------------------------------

 NO OUTPUT CONTROL FOR STRESS PERIOD   28   TIME STEP   15
 
 SOLVING FOR HEAD 
                                                   Max.-Head-Change                         Max.-Flux-Residual
  Residual-Control   Outer-Iter.   Inner-Iter.     Column Row Layer    Maximum-Head-Change  Column Row Layer    Maximum-Flux-Residual          L2-NORM 
          0                 1           2             2    2     1       0.3884500728E-02       2    2    1         0.2029246364E+00      0.7273766791E+00
          0                 2           2             2    2     1      -0.3778567836E-03       2    2    1        -0.2029251591E-01      0.7377033331E-01
          0                 3           1             3   13     1       0.3430690332E-04       3   13    1         0.1953662786E-02      0.5620836778E-02

    ------------------------------------------------
       NWT REQUIRED            3 OUTER ITERATIONS 
       AND A TOTAL OF          5 INNER ITERATIONS.
    ------------------------------------------------

 NO OUTPUT CONTROL FOR STRESS PERIOD   28   TIME STEP   16
 
 SOLVING FOR HEAD 
                                                   Max.-Head-Change                         Max.-Flux-Residual
  Residual-Control   Outer-Iter.   Inner-Iter.     Column Row Layer    Maximum-Head-Change  Column Row Layer    Maximum-Flux-Residual          L2-NORM 
          0                 1           2             2    2     1       0.3858098542E-02       2    2    1         0.2015364398E+00      0.7149613239E+00
          0                 2           2             2    2     1      -0.3752885572E-03       2    2    1        -0.2015369536E-01      0.7233876585E-01
          0                 3           1             3   13     1       0.3087433747E-04       3   13    1         0.1757635119E-02      0.5440658945E-02

    ------------------------------------------------
       NWT REQUIRED            3 OUTER ITERATIONS 
       AND A TOTAL OF          5 INNER ITERATIONS.
    ------------------------------------------------

 NO OUTPUT CONTROL FOR STRESS PERIOD   28   TIME STEP   17
 
 SOLVING FOR HEAD 
                                                   Max.-Head-Change                         Max.-Flux-Residual
  Residual-Control   Outer-Iter.   Inner-Iter.     Column Row Layer    Maximum-Head-Change  Column Row Layer    Maximum-Flux-Residual          L2-NORM 
          0                 1           2             2    2     1       0.3832149860E-02       2    2    1         0.2001720962E+00      0.7037834373E+00
          0                 2           2             2    2     1      -0.3727644448E-03       2    2    1        -0.2001726011E-01      0.7106690782E-01
          0                 3           1             3   13     1       0.2775586144E-04       3   13    1         0.1579501896E-02      0.5284749778E-02

    ------------------------------------------------
       NWT REQUIRED            3 OUTER ITERATIONS 
       AND A TOTAL OF          5 INNER ITERATIONS.
    ------------------------------------------------

 NO OUTPUT CONTROL FOR STRESS PERIOD   28   TIME STEP   18
 
 SOLVING FOR HEAD 
                                                   Max.-Head-Change                         Max.-Flux-Residual
  Residual-Control   Outer-Iter.   Inner-Iter.     Column Row Layer    Maximum-Head-Change  Column Row Layer    Maximum-Flux-Residual          L2-NORM 
          0                 1           2             2    2     1       0.3806560965E-02       2    2    1         0.1988266849E+00      0.6936808699E+00
          0                 2           2             2    2     1      -0.3702753297E-03       2    2    1        -0.1988271810E-01      0.6993077274E-01
          0                 3           1             2    2     1       0.2521436970E-04       3   13    1         0.1425001451E-02      0.5151281039E-02

    ------------------------------------------------
       NWT REQUIRED            3 OUTER ITERATIONS 
       AND A TOTAL OF          5 INNER ITERATIONS.
    ------------------------------------------------

 NO OUTPUT CONTROL FOR STRESS PERIOD   28   TIME STEP   19
 
 SOLVING FOR HEAD 
                                                   Max.-Head-Change                         Max.-Flux-Residual
  Residual-Control   Outer-Iter.   Inner-Iter.     Column Row Layer    Maximum-Head-Change  Column Row Layer    Maximum-Flux-Residual          L2-NORM 
          0                 1           2             2    2     1       0.3781238657E-02       2    2    1         0.1974953464E+00      0.6844832439E+00
          0                 2           2             2    2     1      -0.3678121468E-03       2    2    1        -0.1974958338E-01      0.6890902898E-01
          0                 3           1             2    2     1       0.2504663675E-04       2    2    1         0.1382470987E-02      0.5034562878E-02

    ------------------------------------------------
       NWT REQUIRED            3 OUTER ITERATIONS 
       AND A TOTAL OF          5 INNER ITERATIONS.
    ------------------------------------------------

 NO OUTPUT CONTROL FOR STRESS PERIOD   28   TIME STEP   20
 
 SOLVING FOR HEAD 
                                                   Max.-Head-Change                         Max.-Flux-Residual
  Residual-Control   Outer-Iter.   Inner-Iter.     Column Row Layer    Maximum-Head-Change  Column Row Layer    Maximum-Flux-Residual          L2-NORM 
          0                 1           2             1    1     1       0.3764470592E-02       2    2    1         0.1961824118E+00      0.6760902304E+00
          0                 2           2             1    1     1      -0.3661807544E-03       2    2    1        -0.1961828908E-01      0.6798723985E-01
          0                 3           1             1    1     1       0.2493554776E-04       2    2    1         0.1373280378E-02      0.4933770113E-02

    ------------------------------------------------
       NWT REQUIRED            3 OUTER ITERATIONS 
       AND A TOTAL OF          5 INNER ITERATIONS.
    ------------------------------------------------

 NO OUTPUT CONTROL FOR STRESS PERIOD   28   TIME STEP   21
 
 SOLVING FOR HEAD 
                                                   Max.-Head-Change                         Max.-Flux-Residual
  Residual-Control   Outer-Iter.   Inner-Iter.     Column Row Layer    Maximum-Head-Change  Column Row Layer    Maximum-Flux-Residual          L2-NORM 
          0                 1           2             1    1     1       0.3760456892E-02       1    1    1         0.1952183500E+00      0.6683835603E+00
          0                 2           2             1    1     1      -0.3657903289E-03       1    1    1        -0.1952186248E-01      0.6715007734E-01
          0                 3           1             1    1     1       0.2490896131E-04       1    1    1         0.1366530706E-02      0.4844761461E-02

    ------------------------------------------------
       NWT REQUIRED            3 OUTER ITERATIONS 
       AND A TOTAL OF          5 INNER ITERATIONS.
    ------------------------------------------------

 NO OUTPUT CONTROL FOR STRESS PERIOD   28   TIME STEP   22
 
 SOLVING FOR HEAD 
                                                   Max.-Head-Change                         Max.-Flux-Residual
  Residual-Control   Outer-Iter.   Inner-Iter.     Column Row Layer    Maximum-Head-Change  Column Row Layer    Maximum-Flux-Residual          L2-NORM 
          0                 1           2             1    1     1       0.3756457900E-02       1    1    1         0.1950102461E+00      0.6612749605E+00
          0                 2           2             1    1     1      -0.3654013343E-03       1    1    1        -0.1950105197E-01      0.6638436033E-01
          0                 3           1             1    1     1       0.2488247212E-04       1    1    1         0.1365073970E-02      0.4766199864E-02

    ------------------------------------------------
       NWT REQUIRED            3 OUTER ITERATIONS 
       AND A TOTAL OF          5 INNER ITERATIONS.
    ------------------------------------------------

 NO OUTPUT CONTROL FOR STRESS PERIOD   28   TIME STEP   23
 
 SOLVING FOR HEAD 
                                                   Max.-Head-Change                         Max.-Flux-Residual
  Residual-Control   Outer-Iter.   Inner-Iter.     Column Row Layer    Maximum-Head-Change  Column Row Layer    Maximum-Flux-Residual          L2-NORM 
          0                 1           2             1    1     1       0.3752473529E-02       1    1    1         0.1948029048E+00      0.6546852502E+00
          0                 2           2             1    1     1      -0.3650137612E-03       1    1    1        -0.1948031770E-01      0.6568131492E-01
          0                 3           1             1    1     1       0.2485607998E-04       1    1    1         0.1363622561E-02      0.4696695819E-02

    ------------------------------------------------
       NWT REQUIRED            3 OUTER ITERATIONS 
       AND A TOTAL OF          5 INNER ITERATIONS.
    ------------------------------------------------

 NO OUTPUT CONTROL FOR STRESS PERIOD   28   TIME STEP   24
 
 SOLVING FOR HEAD 
                                                   Max.-Head-Change                         Max.-Flux-Residual
  Residual-Control   Outer-Iter.   Inner-Iter.     Column Row Layer    Maximum-Head-Change  Column Row Layer    Maximum-Flux-Residual          L2-NORM 
          0                 1           2             1    1     1       0.3748503693E-02       1    1    1         0.1945963216E+00      0.6485598573E+00
          0                 2           2             1    1     1      -0.3646276030E-03       1    1    1        -0.1945965927E-01      0.6503287507E-01
          0                 3           1             1    1     1       0.2482978392E-04       1    1    1         0.1362176476E-02      0.4634915260E-02

    ------------------------------------------------
       NWT REQUIRED            3 OUTER ITERATIONS 
       AND A TOTAL OF          5 INNER ITERATIONS.
    ------------------------------------------------

 NO OUTPUT CONTROL FOR STRESS PERIOD   28   TIME STEP   25
 
 SOLVING FOR HEAD 
                                                   Max.-Head-Change                         Max.-Flux-Residual
  Residual-Control   Outer-Iter.   Inner-Iter.     Column Row Layer    Maximum-Head-Change  Column Row Layer    Maximum-Flux-Residual          L2-NORM 
          0                 1           2             1    1     1       0.3744548334E-02       1    1    1         0.1943904921E+00      0.6428428332E+00
          0                 2           2             1    1     1      -0.3642428523E-03       1    1    1        -0.1943907619E-01      0.6443203981E-01
          0                 3           1             1    1     1       0.2480358372E-04       1    1    1         0.1360735662E-02      0.4579202869E-02

    ------------------------------------------------
       NWT REQUIRED            3 OUTER ITERATIONS 
       AND A TOTAL OF          5 INNER ITERATIONS.
    ------------------------------------------------

 NO OUTPUT CONTROL FOR STRESS PERIOD   28   TIME STEP   26
 
 SOLVING FOR HEAD 
                                                   Max.-Head-Change                         Max.-Flux-Residual
  Residual-Control   Outer-Iter.   Inner-Iter.     Column Row Layer    Maximum-Head-Change  Column Row Layer    Maximum-Flux-Residual          L2-NORM 
          0                 1           2             1    1     1       0.3740607341E-02       1    1    1         0.1941854131E+00      0.6374794933E+00
          0                 2           2             1    1     1      -0.3638594995E-03       1    1    1        -0.1941856817E-01      0.6387179030E-01
          0                 3           1             1    1     1       0.2477747913E-04       1    1    1         0.1359300101E-02      0.4528884223E-02

    ------------------------------------------------
       NWT REQUIRED            3 OUTER ITERATIONS 
       AND A TOTAL OF          5 INNER ITERATIONS.
    ------------------------------------------------

 NO OUTPUT CONTROL FOR STRESS PERIOD   28   TIME STEP   27
 
 SOLVING FOR HEAD 
                                                   Max.-Head-Change                         Max.-Flux-Residual
  Residual-Control   Outer-Iter.   Inner-Iter.     Column Row Layer    Maximum-Head-Change  Column Row Layer    Maximum-Flux-Residual          L2-NORM 
          0                 1           2             1    1     1       0.3736680631E-02       1    1    1         0.1939810790E+00      0.6324394171E+00
          0                 2           2             1    1     1      -0.3634775362E-03       1    1    1        -0.1939813466E-01      0.6334831224E-01
          0                 3           1             1    1     1       0.2475146874E-04       1    1    1         0.1357869765E-02      0.4483019648E-02

    ------------------------------------------------
       NWT REQUIRED            3 OUTER ITERATIONS 
       AND A TOTAL OF          5 INNER ITERATIONS.
    ------------------------------------------------

 NO OUTPUT CONTROL FOR STRESS PERIOD   28   TIME STEP   28
 
 SOLVING FOR HEAD 
                                                   Max.-Head-Change                         Max.-Flux-Residual
  Residual-Control   Outer-Iter.   Inner-Iter.     Column Row Layer    Maximum-Head-Change  Column Row Layer    Maximum-Flux-Residual          L2-NORM 
          0                 1           2             1    1     1       0.3732745244E-02       1    1    1         0.1937762959E+00      0.6276728670E+00
          0                 2           2             1    1     1      -0.3630947281E-03       1    1    1        -0.1937765621E-01      0.6285571456E-01
          0                 3           1             1    1     1       0.2472540059E-04       1    1    1         0.1356436262E-02      0.4441092526E-02

    ------------------------------------------------
       NWT REQUIRED            3 OUTER ITERATIONS 
       AND A TOTAL OF          5 INNER ITERATIONS.
    ------------------------------------------------

 NO OUTPUT CONTROL FOR STRESS PERIOD   28   TIME STEP   29
 
 SOLVING FOR HEAD 
                                                   Max.-Head-Change                         Max.-Flux-Residual
  Residual-Control   Outer-Iter.   Inner-Iter.     Column Row Layer    Maximum-Head-Change  Column Row Layer    Maximum-Flux-Residual          L2-NORM 
          0                 1           2             1    1     1       0.3728846918E-02       1    1    1         0.1935734421E+00      0.6231607196E+00
          0                 2           2             1    1     1      -0.3627155259E-03       1    1    1        -0.1935737071E-01      0.6239144859E-01
          0                 3           1             1    1     1       0.2469957907E-04       1    1    1         0.1355016297E-02      0.4402353197E-02

    ------------------------------------------------
       NWT REQUIRED            3 OUTER ITERATIONS 
       AND A TOTAL OF          5 INNER ITERATIONS.
    ------------------------------------------------

 NO OUTPUT CONTROL FOR STRESS PERIOD   28   TIME STEP   30



 STREAM LISTING     PERIOD     28   STEP       30

 LAYER ROW COL. STREAM  RCH.  FLOW INTO     FLOW TO   FLOW OUT OF   OVRLND.     DIRECT     STREAM       STREAM     STREAM     STREAM   STREAMBED  STREAMBED
                SEG.NO.  NO.  STRM. RCH.    AQUIFER    STRM. RCH.    RUNOFF     PRECIP       ET          HEAD       DEPTH      WIDTH   CONDCTNC.   GRADIENT

   1    1    1     1     1    5.7748E+01  3.6407E-01   5.7384E+01  0.000E+00  0.000E+00  0.000E+00  1.09455E+03  1.498E+00  1.799E+01  8.095E-02  1.499E+00
   1    2    2     1     2    5.7384E+01  5.6377E-01   5.6820E+01  0.000E+00  0.000E+00  0.000E+00  1.08955E+03  1.492E+00  1.793E+01  1.255E-01  1.497E+00
   1    3    3     1     3    5.6820E+01  4.8075E-01   5.6340E+01  0.000E+00  0.000E+00  0.000E+00  1.08390E+03  1.485E+00  1.786E+01  1.072E-01  1.495E+00
   1    3    4     1     4    5.6340E+01  4.4266E-01   5.5897E+01  0.000E+00  0.000E+00  0.000E+00  1.07889E+03  1.480E+00  1.781E+01  9.882E-02  1.493E+00
   1    4    5     2     1    5.3897E+01  3.8302E-01   5.3514E+01  0.000E+00  0.000E+00  0.000E+00  1.07384E+03  1.911E+00  1.200E+01  7.800E-02  1.637E+00
   1    5    6     2     2    5.3514E+01  2.9420E-01   5.3220E+01  0.000E+00  0.000E+00  0.000E+00  1.06841E+03  1.903E+00  1.200E+01  6.000E-02  1.634E+00
   1    6    6     2     3    5.3220E+01  2.9382E-01   5.2926E+01  0.000E+00  0.000E+00  0.000E+00  1.06369E+03  1.897E+00  1.200E+01  6.000E-02  1.632E+00
   1    7    6     2     4    5.2926E+01  2.9344E-01   5.2633E+01  0.000E+00  0.000E+00  0.000E+00  1.05897E+03  1.891E+00  1.200E+01  6.000E-02  1.630E+00
   1    8    6     2     5    5.2633E+01  2.9306E-01   5.2339E+01  0.000E+00  0.000E+00  0.000E+00  1.05424E+03  1.884E+00  1.200E+01  6.000E-02  1.628E+00
   1    3    5     3     1    2.0000E+00  2.8252E-01   1.7175E+00  0.000E+00  0.000E+00  0.000E+00  1.07555E+03  1.909E+00  9.636E+00  7.227E-02  1.955E+00
   1    3    6     3     2    1.7175E+00  2.4905E-01   1.4684E+00  0.000E+00  0.000E+00  0.000E+00  1.07264E+03  1.727E+00  8.909E+00  6.682E-02  1.864E+00
   1    3    7     3     3    1.4684E+00  1.9718E-01   1.2712E+00  0.000E+00  0.000E+00  0.000E+00  1.06987E+03  1.555E+00  8.218E+00  5.547E-02  1.777E+00
   1    4    8     3     4    1.2712E+00  2.2567E-01   1.0456E+00  0.000E+00  0.000E+00  0.000E+00  1.06682E+03  1.364E+00  7.455E+00  6.709E-02  1.682E+00
   1    5    8     3     5    1.0456E+00  1.5790E-01   8.8768E-01  0.000E+00  0.000E+00  0.000E+00  1.06362E+03  1.164E+00  6.655E+00  4.991E-02  1.582E+00
   1    6    8     3     6    8.8768E-01  5.5980E-02   8.3170E-01  0.000E+00  0.000E+00  0.000E+00  1.06158E+03  1.036E+00  6.145E+00  1.844E-02  1.518E+00
   1    5   10     4     1    1.0000E+01  9.0919E-02   9.9091E+00  0.000E+00  0.000E+00  0.000E+00  1.07836E+03  6.368E-01  1.000E+01  2.500E-02  1.212E+00
   1    5    9     4     2    9.9091E+00  1.8158E-01   9.7275E+00  0.000E+00  0.000E+00  0.000E+00  1.07154E+03  6.315E-01  1.000E+01  5.000E-02  1.211E+00
   1    6    8     4     3    9.7275E+00  1.2689E-01   9.6006E+00  0.000E+00  0.000E+00  0.000E+00  1.06381E+03  6.256E-01  1.000E+01  3.500E-02  1.209E+00
   1    6    8     5     1    1.0432E+01  2.2686E-01   1.0205E+01  0.000E+00  0.000E+00  0.000E+00  1.05868E+03  6.790E-01  1.542E+01  6.166E-02  1.226E+00
   1    7    7     5     2    1.0205E+01  2.7894E-01   9.9265E+00  0.000E+00  0.000E+00  0.000E+00  1.05417E+03  6.732E-01  1.519E+01  7.594E-02  1.224E+00
   1    8    7     5     3    9.9265E+00  1.9221E-01   9.7343E+00  0.000E+00  0.000E+00  0.000E+00  1.04992E+03  6.676E-01  1.497E+01  5.241E-02  1.223E+00
   1    8    6     5     4    9.7343E+00  1.3577E-01   9.5985E+00  0.000E+00  0.000E+00  0.000E+00  1.04691E+03  6.637E-01  1.482E+01  3.706E-02  1.221E+00
   1    9    6     6     1    6.1938E+01  3.0608E-01   6.1632E+01  0.000E+00  0.000E+00  0.000E+00  1.04483E+03  2.101E+00  1.200E+01  6.000E-02  1.700E+00
   1   10    7     6     2    6.1632E+01  3.0571E-01   6.1326E+01  0.000E+00  0.000E+00  0.000E+00  1.04028E+03  2.095E+00  1.200E+01  6.000E-02  1.698E+00
   1   11    7     6     3    6.1326E+01  3.0533E-01   6.1021E+01  0.000E+00  0.000E+00  0.000E+00  1.03573E+03  2.089E+00  1.200E+01  6.000E-02  1.696E+00
   1   12    7     6     4    6.1021E+01  3.0496E-01   6.0716E+01  0.000E+00  0.000E+00  0.000E+00  1.03117E+03  2.083E+00  1.200E+01  6.000E-02  1.694E+00
   1   13    7     6     5    6.0716E+01  2.1313E-02   6.0695E+01  0.000E+00  0.000E+00  0.000E+00  1.02799E+03  2.079E+00  1.200E+01  2.400E-02  2.960E-01
   1   14    9     7     1    1.5000E+02  1.3381E+00   1.4866E+02  0.000E+00  0.000E+00  0.000E+00  1.03987E+03  2.288E+00  5.529E+01  5.593E-01  7.975E-01
   1   13    8     7     2    1.4866E+02  1.8324E+00   1.4683E+02  0.000E+00  0.000E+00  0.000E+00  1.03478E+03  2.279E+00  5.526E+01  6.148E-01  9.935E-01
   1   13    7     7     3    1.4683E+02  1.4462E+00   1.4538E+02  0.000E+00  0.000E+00  0.000E+00  1.02969E+03  2.271E+00  5.522E+01  5.585E-01  8.632E-01
   1   13    6     8     1    2.0608E+02  1.0458E+00   2.0503E+02  0.000E+00  0.000E+00  0.000E+00  1.02505E+03  3.170E+00  4.597E+01  4.684E-01  7.442E-01
   1   13    5     8     2    2.0503E+02  2.3893E-01   2.0479E+02  0.000E+00  0.000E+00  0.000E+00  1.01879E+03  3.166E+00  4.591E+01  4.679E-01  1.702E-01
   1   13    4     8     3    2.0479E+02 -2.3635E+00   2.0716E+02  0.000E+00  0.000E+00  0.000E+00  1.01255E+03  3.173E+00  4.600E+01  4.688E+00 -1.681E-01
   1   13    3     8     4    2.0716E+02 -3.6167E+00   2.1077E+02  0.000E+00  0.000E+00  0.000E+00  1.00631E+03  3.190E+00  4.625E+01  4.713E+00 -2.558E-01
   1   13    2     8     5    2.1077E+02 -2.4854E+00   2.1326E+02  0.000E+00  0.000E+00  0.000E+00  1.00008E+03  3.207E+00  4.650E+01  4.739E+00 -1.748E-01
   1   13    1     8     6    2.1326E+02 -1.8869E+00   2.1515E+02  0.000E+00  0.000E+00  0.000E+00  9.95094E+02  3.219E+00  4.668E+01  2.854E+00 -2.204E-01
   1    8    6     9     1    0.0000E+00  0.0000E+00   0.0000E+00  0.000E+00  0.000E+00  0.000E+00  1.07875E+03  0.000E+00  4.000E+00  0.000E+00  1.000E+00
   1    8    5     9     2    0.0000E+00  0.0000E+00   0.0000E+00  0.000E+00  0.000E+00  0.000E+00  1.07825E+03  0.000E+00  4.000E+00  0.000E+00  1.000E+00





UNSATURATED ZONE PACKAGE VOLUMETRIC BUDGET FOR  TIME STEP    30 STRESS PERIOD   28
  ------------------------------------------------------------------------------



     CUMULATIVE VOLUMES      L**3       RATES FOR THIS TIME STEP      L**3/T
     ------------------                 ------------------------

           IN:                                      IN:
           ---                                      ---
        INFILTRATION =  1111824767.4358          INFILTRATION =           4.4075

          OUT:                                     OUT:
          ----                                     ----
              UZF ET =  1003176648.3281                UZF ET =           0.7250
        UZF RECHARGE =     1173605.4417          UZF RECHARGE =           0.0979

            IN - OUT =   107474513.6660              IN - OUT =           3.5846

          STORAGE:                                 STORAGE:
          --------                                 --------
      STORAGE CHANGE =   107475376.7706        STORAGE CHANGE =           3.5846

 PERCENT DISCREPANCY IS DIFFERENCE BETWEEN IN-OUT MINUS CHANGE IN STORAGE
 DIVIDED BY THE AVERAGE OF IN AND OUT TIMES 100

 PERCENT DISCREPANCY =          -0.00     PERCENT DISCREPANCY =          -0.00






1
  VOLUMETRIC BUDGET FOR AGRICULTURAL FIELDS AT TIME STEP   30, STRESS PERIOD  28
  ------------------------------------------------------------------------------

     CUMULATIVE VOLUMES      L**3       RATES FOR THIS TIME STEP      L**3/T
     ------------------                 ------------------------

           IN:                                      IN:
           ---                                      ---
               AG WELLS  =   175546176.0000                 AG WELLS  =           0.0000
      DIVERSION SEGMENTS =   623216576.0000        DIVERSION SEGMENTS =           0.0000
           GW IRRIGATION =           0.0000             GW IRRIGATION =           0.0000
           SW IRRIGATION =           0.0000             SW IRRIGATION =           0.0000
        SYSTEM LOSSES GW =           0.0000          SYSTEM LOSSES GW =           0.0000
        SYSTEM LOSSES SW =           0.0000          SYSTEM LOSSES SW =           0.0000

                TOTAL IN =   798762752.0000                  TOTAL IN =           0.0000

          OUT:                                     OUT:
          ----                                     ----
               AG WELLS  =           0.0000                 AG WELLS  =           0.0000
      DIVERSION SEGMENTS =           0.0000        DIVERSION SEGMENTS =           0.0000
           GW IRRIGATION =   175546176.0000             GW IRRIGATION =           0.0000
           SW IRRIGATION =   623229888.0000             SW IRRIGATION =           0.0000
        SYSTEM LOSSES GW =           0.0000          SYSTEM LOSSES GW =           0.0000
        SYSTEM LOSSES SW =           0.0000          SYSTEM LOSSES SW =           0.0000

               TOTAL OUT =   798776064.0000                 TOTAL OUT =           0.0000

                IN - OUT =      -13312.0000                  IN - OUT =           0.0000

     PERCENT DISCREPANCY =          -0.00         PERCENT DISCREPANCY =           0.00



1
  VOLUMETRIC BUDGET FOR ENTIRE MODEL AT END OF TIME STEP   30, STRESS PERIOD  28
  ------------------------------------------------------------------------------

     CUMULATIVE VOLUMES      L**3       RATES FOR THIS TIME STEP      L**3/T
     ------------------                 ------------------------

           IN:                                      IN:
           ---                                      ---
             STORAGE     =   298698720.0000               STORAGE     =           0.8589
       CONSTANT HEAD     =           0.0000         CONSTANT HEAD     =           0.0000
     HEAD DEP BOUNDS     =    20317488.0000       HEAD DEP BOUNDS     =           0.2859
      STREAM LEAKAGE     =   843726016.0000        STREAM LEAKAGE     =          12.9550
        UZF RECHARGE     =     1173605.3750          UZF RECHARGE     =       9.7900E-02
               GW ET     =           0.0000                 GW ET     =           0.0000
     SURFACE LEAKAGE     =           0.0000       SURFACE LEAKAGE     =           0.0000
           AG WELLS      =           0.0000             AG WELLS      =           0.0000

                TOTAL IN =  1163915904.0000                  TOTAL IN =          14.1977

          OUT:                                     OUT:
          ----                                     ----
             STORAGE     =   195764720.0000               STORAGE     =           3.5511
       CONSTANT HEAD     =           0.0000         CONSTANT HEAD     =           0.0000
     HEAD DEP BOUNDS     =    20659380.0000       HEAD DEP BOUNDS     =           0.2947
      STREAM LEAKAGE     =   769653248.0000        STREAM LEAKAGE     =          10.3525
        UZF RECHARGE     =           0.0000          UZF RECHARGE     =           0.0000
               GW ET     =     2260364.5000                 GW ET     =       1.6222E-12
     SURFACE LEAKAGE     =           0.0000       SURFACE LEAKAGE     =           0.0000
           AG WELLS      =   175546176.0000             AG WELLS      =           0.0000

               TOTAL OUT =  1163883776.0000                 TOTAL OUT =          14.1984

                IN - OUT =       32128.0000                  IN - OUT =      -6.2370E-04

     PERCENT DISCREPANCY =           0.00         PERCENT DISCREPANCY =          -0.00






         TIME SUMMARY AT END OF TIME STEP   30 IN STRESS PERIOD   28
                    SECONDS     MINUTES      HOURS       DAYS        YEARS
                    -----------------------------------------------------------
   TIME STEP LENGTH  87667.      1461.1      24.352      1.0147     2.77799E-03
 STRESS PERIOD TIME 2.63000E+06  43833.      730.56      30.440     8.33397E-02
         TOTAL TIME 7.10967E+07 1.18494E+06  19749.      822.88      2.2529    
1
1
                            STRESS PERIOD NO.   29, LENGTH =   2630000.    
                            -----------------------------------------------

                              NUMBER OF TIME STEPS =    30

                               MULTIPLIER FOR DELT =     1.000

                            INITIAL TIME STEP SIZE =   87666.66    

 REUSING NON-PARAMETER GHB CELLS FROM LAST STRESS PERIOD

      2 GHB CELLS

 REUSING STREAM SEGMENT DATA FROM LAST STRESS PERIOD



            AREAL INFILTRATION RATE
 READING ON UNIT   19 WITH FORMAT: (10F4.0)            

            1           2           3           4           5           6           7           8           9          10
 ........................................................................................................................
   1   1.2000E-09   0.000       0.000       0.000       0.000       0.000       0.000       0.000       0.000       0.000    
   2   2.1000E-09  2.0000E-09  8.0000E-10  8.5000E-09   0.000       0.000       0.000       0.000       0.000       0.000    
   3   5.0000E-10  1.1000E-09  8.8000E-09  5.5000E-09   0.000       0.000       0.000       0.000       0.000       0.000    
   4   8.5000E-09  1.1000E-09  1.1000E-09  1.1000E-09  2.0000E-09   0.000       0.000       0.000       0.000       0.000    
   5   8.5000E-09  1.1000E-09  1.1000E-09  1.1000E-09  1.1000E-09   0.000       0.000       0.000       0.000       0.000    
   6   8.5000E-09  5.2000E-09  2.1000E-09  1.1000E-09  1.5000E-09   0.000       0.000       0.000       0.000       0.000    
   7   8.5000E-09  5.2000E-09  2.1000E-09  1.2000E-09  2.0000E-09   0.000       0.000       0.000       0.000       0.000    
   8   5.0000E-10  5.2000E-09  2.1000E-09  1.2000E-09  5.0000E-09   0.000       0.000       0.000       0.000       0.000    
   9   5.0000E-10  5.2000E-09  2.1000E-09  1.2000E-09  5.0000E-09   0.000       0.000       0.000       0.000       0.000    
  10   5.0000E-10  5.2000E-09  2.1000E-09  1.2000E-09  5.8000E-09   0.000       0.000       0.000       0.000       0.000    
  11   1.0000E-10  1.1000E-09  1.1000E-09  1.2000E-09  5.0000E-09   0.000       0.000       0.000       0.000       0.000    
  12   1.1000E-09  1.1000E-09  1.1000E-09  1.1000E-09  2.0000E-09   0.000       0.000       0.000       0.000       0.000    
  13   1.1000E-09  2.2000E-09  2.2000E-09  2.1000E-09  1.0000E-09   0.000       0.000       0.000       0.000       0.000    
  14   2.0000E-10  5.5000E-09  5.5000E-09  5.2000E-09  1.0000E-09   0.000       0.000       0.000       0.000       0.000    
  15    0.000      8.8000E-09  8.8000E-09   0.000       0.000       0.000       0.000       0.000       0.000       0.000    

                  ET RATE =  2.500000E-08

 USING ET EXTINCTION DEPTH FROM PREVIOUS STRESS PERIOD. CURRENT PERIOD IS:      29

 USING EXTINCTION WATER CONTENT FROM PREVIOUS STRESS PERIOD. CURRENT PERIOD IS:      29

 USING AIR ENTRY PRESSURE FROM PREVIOUS STRESS PERIOD. CURRENT PERIOD IS:      29

 USING ROOT PRESSURE HEAD FROM PREVIOUS STRESS PERIOD. CURRENT PERIOD IS:      29

 USING ROOT ACTIVITY FROM PREVIOUS STRESS PERIOD. CURRENT PERIOD IS:      29

 PROCESSING AG STRESS PERIOD DATA

 READING AG STRESS PERIOD DATA

 READING IRRIGATION SEGMENT

 READING IRRIGATION WELL

 READING SUPPLEMENTAL WELL

 END PROCESSING AG STRESS PERIOD DATA OPTIONS
 
 SOLVING FOR HEAD 
                                                   Max.-Head-Change                         Max.-Flux-Residual
  Residual-Control   Outer-Iter.   Inner-Iter.     Column Row Layer    Maximum-Head-Change  Column Row Layer    Maximum-Flux-Residual          L2-NORM 
          0                 1           2             1    1     1       0.3724962655E-02       1    1    1         0.1933713202E+00      0.6188745558E+00
          0                 2           2             1    1     1      -0.3623376907E-03       1    1    1        -0.1933715840E-01      0.6195208711E-01
          0                 3           1             1    1     1       0.2467384961E-04       1    1    1         0.1353601418E-02      0.4366056084E-02

    ------------------------------------------------
       NWT REQUIRED            3 OUTER ITERATIONS 
       AND A TOTAL OF          5 INNER ITERATIONS.
    ------------------------------------------------

 NO OUTPUT CONTROL FOR STRESS PERIOD   29   TIME STEP    1
 
 SOLVING FOR HEAD 
                                                   Max.-Head-Change                         Max.-Flux-Residual
  Residual-Control   Outer-Iter.   Inner-Iter.     Column Row Layer    Maximum-Head-Change  Column Row Layer    Maximum-Flux-Residual          L2-NORM 
          0                 1           2             4   13     1      -0.1108246617E-01       4   13    1        -0.6370962870E+00      0.1163223651E+01
          0                 2           2             2   13     1       0.9125567836E-03       2   13    1         0.5298676102E-01      0.9530497564E-01
          0                 3           1             2   13     1      -0.5929470229E-04       2   13    1        -0.3539286842E-02      0.6498413791E-02

    ------------------------------------------------
       NWT REQUIRED            3 OUTER ITERATIONS 
       AND A TOTAL OF          5 INNER ITERATIONS.
    ------------------------------------------------

 NO OUTPUT CONTROL FOR STRESS PERIOD   29   TIME STEP    2
 
 SOLVING FOR HEAD 
                                                   Max.-Head-Change                         Max.-Flux-Residual
  Residual-Control   Outer-Iter.   Inner-Iter.     Column Row Layer    Maximum-Head-Change  Column Row Layer    Maximum-Flux-Residual          L2-NORM 
          0                 1           2             4   13     1      -0.1268482133E-01       4   13    1        -0.7279693227E+00      0.1315442065E+01
          0                 2           2             4   13     1       0.1223155044E-02       4   13    1         0.7217318275E-01      0.1286436342E+00
          0                 3           1             4   13     1      -0.8231261634E-04       4   13    1        -0.4993669147E-02      0.8733623732E-02

    ------------------------------------------------
       NWT REQUIRED            3 OUTER ITERATIONS 
       AND A TOTAL OF          5 INNER ITERATIONS.
    ------------------------------------------------

 NO OUTPUT CONTROL FOR STRESS PERIOD   29   TIME STEP    3
 
 SOLVING FOR HEAD 
                                                   Max.-Head-Change                         Max.-Flux-Residual
  Residual-Control   Outer-Iter.   Inner-Iter.     Column Row Layer    Maximum-Head-Change  Column Row Layer    Maximum-Flux-Residual          L2-NORM 
          0                 1           2             4   13     1      -0.1149346265E-01       4   13    1        -0.6593138872E+00      0.1224834210E+01
          0                 2           2             4   13     1       0.1108184403E-02       4   13    1         0.6536091524E-01      0.1198263232E+00
          0                 3           1             4   13     1      -0.7455073795E-04       4   13    1        -0.4520782225E-02      0.8139546629E-02

    ------------------------------------------------
       NWT REQUIRED            3 OUTER ITERATIONS 
       AND A TOTAL OF          5 INNER ITERATIONS.
    ------------------------------------------------

 NO OUTPUT CONTROL FOR STRESS PERIOD   29   TIME STEP    4
 
 SOLVING FOR HEAD 
                                                   Max.-Head-Change                         Max.-Flux-Residual
  Residual-Control   Outer-Iter.   Inner-Iter.     Column Row Layer    Maximum-Head-Change  Column Row Layer    Maximum-Flux-Residual          L2-NORM 
          0                 1           2             4   13     1      -0.1041774096E-01       4   13    1        -0.5973005848E+00      0.1143006446E+01
          0                 2           2             4   13     1       0.1004362779E-02       4   13    1         0.5920708527E-01      0.1118706047E+00
          0                 3           1             4   13     1      -0.6754829461E-04       4   13    1        -0.4094030826E-02      0.7603742951E-02

    ------------------------------------------------
       NWT REQUIRED            3 OUTER ITERATIONS 
       AND A TOTAL OF          5 INNER ITERATIONS.
    ------------------------------------------------

 NO OUTPUT CONTROL FOR STRESS PERIOD   29   TIME STEP    5
 
 SOLVING FOR HEAD 
                                                   Max.-Head-Change                         Max.-Flux-Residual
  Residual-Control   Outer-Iter.   Inner-Iter.     Column Row Layer    Maximum-Head-Change  Column Row Layer    Maximum-Flux-Residual          L2-NORM 
          0                 1           2             3   13     1      -0.9640224485E-02       3   13    1        -0.5558344367E+00      0.1099603581E+01
          0                 2           2             3   13     1       0.9170412868E-03       4   13    1         0.5484722146E-01      0.1076856313E+00
          0                 3           1             4   13     1      -0.6154611086E-04       4   13    1        -0.3793360505E-02      0.7325916386E-02

    ------------------------------------------------
       NWT REQUIRED            3 OUTER ITERATIONS 
       AND A TOTAL OF          5 INNER ITERATIONS.
    ------------------------------------------------

 NO OUTPUT CONTROL FOR STRESS PERIOD   29   TIME STEP    6
 
 SOLVING FOR HEAD 
                                                   Max.-Head-Change                         Max.-Flux-Residual
  Residual-Control   Outer-Iter.   Inner-Iter.     Column Row Layer    Maximum-Head-Change  Column Row Layer    Maximum-Flux-Residual          L2-NORM 
          0                 1           2             3   13     1      -0.8699013243E-02       3   13    1        -0.5014725659E+00      0.1020965347E+01
          0                 2           2             3   13     1       0.8263995432E-03       3   13    1         0.4904399267E-01      0.9651984614E-01
          0                 3           1             3   13     1      -0.5468776617E-04       3   13    1        -0.3336609037E-02      0.6574346735E-02

    ------------------------------------------------
       NWT REQUIRED            3 OUTER ITERATIONS 
       AND A TOTAL OF          5 INNER ITERATIONS.
    ------------------------------------------------

 NO OUTPUT CONTROL FOR STRESS PERIOD   29   TIME STEP    7
 
 SOLVING FOR HEAD 
                                                   Max.-Head-Change                         Max.-Flux-Residual
  Residual-Control   Outer-Iter.   Inner-Iter.     Column Row Layer    Maximum-Head-Change  Column Row Layer    Maximum-Flux-Residual          L2-NORM 
          0                 1           2             3   13     1      -0.7854816015E-02       3   13    1        -0.4525792233E+00      0.9542751592E+00
          0                 2           2             4   13     1       0.7510968673E-03       3   13    1         0.4424318334E-01      0.9356300280E-01
          0                 3           1             4   13     1      -0.5050242124E-04       4   13    1        -0.3054866475E-02      0.6375990661E-02

    ------------------------------------------------
       NWT REQUIRED            3 OUTER ITERATIONS 
       AND A TOTAL OF          5 INNER ITERATIONS.
    ------------------------------------------------

 NO OUTPUT CONTROL FOR STRESS PERIOD   29   TIME STEP    8
 
 SOLVING FOR HEAD 
                                                   Max.-Head-Change                         Max.-Flux-Residual
  Residual-Control   Outer-Iter.   Inner-Iter.     Column Row Layer    Maximum-Head-Change  Column Row Layer    Maximum-Flux-Residual          L2-NORM 
          0                 1           2             2   13     1      -0.7220260985E-02       3   13    1        -0.4086108764E+00      0.8956148251E+00
          0                 2           2             4   13     1       0.6823405968E-03       4   13    1         0.4013040439E-01      0.8787898108E-01
          0                 3           1             4   13     1      -0.4587527701E-04       4   13    1        -0.2773917376E-02      0.5995246271E-02

    ------------------------------------------------
       NWT REQUIRED            3 OUTER ITERATIONS 
       AND A TOTAL OF          5 INNER ITERATIONS.
    ------------------------------------------------

 NO OUTPUT CONTROL FOR STRESS PERIOD   29   TIME STEP    9
 
 SOLVING FOR HEAD 
                                                   Max.-Head-Change                         Max.-Flux-Residual
  Residual-Control   Outer-Iter.   Inner-Iter.     Column Row Layer    Maximum-Head-Change  Column Row Layer    Maximum-Flux-Residual          L2-NORM 
          0                 1           2             2   13     1      -0.6691936822E-02       2   13    1        -0.3761380540E+00      0.8433069435E+00
          0                 2           2             2   13     1       0.6242082140E-03       4   13    1         0.3645765668E-01      0.8281180253E-01
          0                 3           1             4   13     1      -0.4166787023E-04       4   13    1        -0.2518497723E-02      0.5654989922E-02

    ------------------------------------------------
       NWT REQUIRED            3 OUTER ITERATIONS 
       AND A TOTAL OF          5 INNER ITERATIONS.
    ------------------------------------------------

 NO OUTPUT CONTROL FOR STRESS PERIOD   29   TIME STEP   10
 
 SOLVING FOR HEAD 
                                                   Max.-Head-Change                         Max.-Flux-Residual
  Residual-Control   Outer-Iter.   Inner-Iter.     Column Row Layer    Maximum-Head-Change  Column Row Layer    Maximum-Flux-Residual          L2-NORM 
          0                 1           2             2   13     1      -0.6201720422E-02       2   13    1        -0.3485958996E+00      0.7967202722E+00
          0                 2           2             2   13     1       0.5787989601E-03       2   13    1         0.3344150092E-01      0.7831362310E-01
          0                 3           1             4   13     1      -0.3788952392E-04       4   13    1        -0.2289149513E-02      0.5354595752E-02

    ------------------------------------------------
       NWT REQUIRED            3 OUTER ITERATIONS 
       AND A TOTAL OF          5 INNER ITERATIONS.
    ------------------------------------------------

 NO OUTPUT CONTROL FOR STRESS PERIOD   29   TIME STEP   11
 
 SOLVING FOR HEAD 
                                                   Max.-Head-Change                         Max.-Flux-Residual
  Residual-Control   Outer-Iter.   Inner-Iter.     Column Row Layer    Maximum-Head-Change  Column Row Layer    Maximum-Flux-Residual          L2-NORM 
          0                 1           2             2   13     1      -0.5747022029E-02       2   13    1        -0.3230446157E+00      0.7552386275E+00
          0                 2           2             2   13     1       0.5363590945E-03       2   13    1         0.3100766843E-01      0.7329843045E-01
          0                 3           1             2   13     1      -0.3451593246E-04       4   13    1        -0.2081083346E-02      0.5021299333E-02

    ------------------------------------------------
       NWT REQUIRED            3 OUTER ITERATIONS 
       AND A TOTAL OF          5 INNER ITERATIONS.
    ------------------------------------------------

 NO OUTPUT CONTROL FOR STRESS PERIOD   29   TIME STEP   12
 
 SOLVING FOR HEAD 
                                                   Max.-Head-Change                         Max.-Flux-Residual
  Residual-Control   Outer-Iter.   Inner-Iter.     Column Row Layer    Maximum-Head-Change  Column Row Layer    Maximum-Flux-Residual          L2-NORM 
          0                 1           2             2   13     1      -0.5326687876E-02       2   13    1        -0.2993644087E+00      0.7190850141E+00
          0                 2           2             2   13     1       0.4974765407E-03       2   13    1         0.2873855150E-01      0.7081146153E-01
          0                 3           1             2   13     1      -0.3196373286E-04       2   13    1        -0.1897754042E-02      0.4854713385E-02

    ------------------------------------------------
       NWT REQUIRED            3 OUTER ITERATIONS 
       AND A TOTAL OF          5 INNER ITERATIONS.
    ------------------------------------------------

 NO OUTPUT CONTROL FOR STRESS PERIOD   29   TIME STEP   13
 
 SOLVING FOR HEAD 
                                                   Max.-Head-Change                         Max.-Flux-Residual
  Residual-Control   Outer-Iter.   Inner-Iter.     Column Row Layer    Maximum-Head-Change  Column Row Layer    Maximum-Flux-Residual          L2-NORM 
          0                 1           2             2   13     1      -0.4937307015E-02       2   13    1        -0.2774457285E+00      0.6878384536E+00
          0                 2           2             2   13     1       0.4612089901E-03       2   13    1         0.2663993195E-01      0.6779978723E-01
          0                 3           1             2   13     1      -0.2963001489E-04       2   13    1        -0.1758952517E-02      0.4653879121E-02

    ------------------------------------------------
       NWT REQUIRED            3 OUTER ITERATIONS 
       AND A TOTAL OF          5 INNER ITERATIONS.
    ------------------------------------------------

 NO OUTPUT CONTROL FOR STRESS PERIOD   29   TIME STEP   14
 
 SOLVING FOR HEAD 
                                                   Max.-Head-Change                         Max.-Flux-Residual
  Residual-Control   Outer-Iter.   Inner-Iter.     Column Row Layer    Maximum-Head-Change  Column Row Layer    Maximum-Flux-Residual          L2-NORM 
          0                 1           2             2   13     1      -0.4576925403E-02       2   13    1        -0.2571611367E+00      0.6598057379E+00
          0                 2           2             2   13     1       0.4276409917E-03       2   13    1         0.2469771788E-01      0.6509901447E-01
          0                 3           1             2   13     1      -0.2750829533E-04       2   13    1        -0.1632781759E-02      0.4475486817E-02

    ------------------------------------------------
       NWT REQUIRED            3 OUTER ITERATIONS 
       AND A TOTAL OF          5 INNER ITERATIONS.
    ------------------------------------------------

 NO OUTPUT CONTROL FOR STRESS PERIOD   29   TIME STEP   15
 
 SOLVING FOR HEAD 
                                                   Max.-Head-Change                         Max.-Flux-Residual
  Residual-Control   Outer-Iter.   Inner-Iter.     Column Row Layer    Maximum-Head-Change  Column Row Layer    Maximum-Flux-Residual          L2-NORM 
          0                 1           2             2   13     1      -0.4243371571E-02       2   13    1        -0.2383880342E+00      0.6346708758E+00
          0                 2           2             2   13     1       0.3965522954E-03       2   13    1         0.2289908194E-01      0.6267892021E-01
          0                 3           1             2   13     1      -0.2551431036E-04       2   13    1        -0.1514208772E-02      0.4314880784E-02

    ------------------------------------------------
       NWT REQUIRED            3 OUTER ITERATIONS 
       AND A TOTAL OF          5 INNER ITERATIONS.
    ------------------------------------------------

 NO OUTPUT CONTROL FOR STRESS PERIOD   29   TIME STEP   16
 
 SOLVING FOR HEAD 
                                                   Max.-Head-Change                         Max.-Flux-Residual
  Residual-Control   Outer-Iter.   Inner-Iter.     Column Row Layer    Maximum-Head-Change  Column Row Layer    Maximum-Flux-Residual          L2-NORM 
          0                 1           2             2   13     1      -0.3934547325E-02       2   13    1        -0.2210081221E+00      0.6121154627E+00
          0                 2           2             2   13     1       0.3677553670E-03       2   13    1         0.2123318652E-01      0.6050692706E-01
          0                 3           1             2   13     1      -0.2365427654E-04       2   13    1        -0.1403611811E-02      0.4169649088E-02

    ------------------------------------------------
       NWT REQUIRED            3 OUTER ITERATIONS 
       AND A TOTAL OF          5 INNER ITERATIONS.
    ------------------------------------------------

 NO OUTPUT CONTROL FOR STRESS PERIOD   29   TIME STEP   17
 
 SOLVING FOR HEAD 
                                                   Max.-Head-Change                         Max.-Flux-Residual
  Residual-Control   Outer-Iter.   Inner-Iter.     Column Row Layer    Maximum-Head-Change  Column Row Layer    Maximum-Flux-Residual          L2-NORM 
          0                 1           2             2   13     1      -0.3648686180E-02       2   13    1        -0.2049218528E+00      0.5918795758E+00
          0                 2           2             2   13     1       0.3411043114E-03       2   13    1         0.1969155638E-01      0.5856016253E-01
          0                 3           1             2   13     1      -0.2194238160E-04       2   13    1        -0.1301833887E-02      0.4040493937E-02

    ------------------------------------------------
       NWT REQUIRED            3 OUTER ITERATIONS 
       AND A TOTAL OF          5 INNER ITERATIONS.
    ------------------------------------------------

 NO OUTPUT CONTROL FOR STRESS PERIOD   29   TIME STEP   18
 
 SOLVING FOR HEAD 
                                                   Max.-Head-Change                         Max.-Flux-Residual
  Residual-Control   Outer-Iter.   Inner-Iter.     Column Row Layer    Maximum-Head-Change  Column Row Layer    Maximum-Flux-Residual          L2-NORM 
          0                 1           2             2   13     1      -0.3384025996E-02       2   13    1        -0.1900298317E+00      0.5737074954E+00
          0                 2           2             2   13     1       0.3164460754E-03       2   13    1         0.1826532750E-01      0.5681217291E-01
          0                 3           1             2   13     1      -0.2036144947E-04       2   13    1        -0.1207839804E-02      0.3924894936E-02

    ------------------------------------------------
       NWT REQUIRED            3 OUTER ITERATIONS 
       AND A TOTAL OF          5 INNER ITERATIONS.
    ------------------------------------------------

 NO OUTPUT CONTROL FOR STRESS PERIOD   29   TIME STEP   19
 
 SOLVING FOR HEAD 
                                                   Max.-Head-Change                         Max.-Flux-Residual
  Residual-Control   Outer-Iter.   Inner-Iter.     Column Row Layer    Maximum-Head-Change  Column Row Layer    Maximum-Flux-Residual          L2-NORM 
          0                 1           2             2   13     1      -0.3138984019E-02       2   13    1        -0.1762428578E+00      0.5573710394E+00
          0                 2           2             2   13     1       0.2935501613E-03       2   13    1         0.1694111370E-01      0.5524063172E-01
          0                 3           1             4    7     1       0.1977563070E-04       2   13    1        -0.1121180529E-02      0.3821092176E-02

    ------------------------------------------------
       NWT REQUIRED            3 OUTER ITERATIONS 
       AND A TOTAL OF          5 INNER ITERATIONS.
    ------------------------------------------------

 NO OUTPUT CONTROL FOR STRESS PERIOD   29   TIME STEP   20
 
 SOLVING FOR HEAD 
                                                   Max.-Head-Change                         Max.-Flux-Residual
  Residual-Control   Outer-Iter.   Inner-Iter.     Column Row Layer    Maximum-Head-Change  Column Row Layer    Maximum-Flux-Residual          L2-NORM 
          0                 1           2             4    7     1       0.2964803103E-02       2   13    1        -0.1634794629E+00      0.5426605229E+00
          0                 2           2             4    7     1      -0.2883946404E-03       2   13    1         0.1571687623E-01      0.5382573040E-01
          0                 3           1             4    7     1       0.1963860445E-04       4    7    1         0.1085845719E-02      0.3727979423E-02

    ------------------------------------------------
       NWT REQUIRED            3 OUTER ITERATIONS 
       AND A TOTAL OF          5 INNER ITERATIONS.
    ------------------------------------------------

 NO OUTPUT CONTROL FOR STRESS PERIOD   29   TIME STEP   21
 
 SOLVING FOR HEAD 
                                                   Max.-Head-Change                         Max.-Flux-Residual
  Residual-Control   Outer-Iter.   Inner-Iter.     Column Row Layer    Maximum-Head-Change  Column Row Layer    Maximum-Flux-Residual          L2-NORM 
          0                 1           2             4    7     1       0.2944316414E-02       4    7    1         0.1540480817E+00      0.5294011417E+00
          0                 2           2             4    7     1      -0.2864018426E-03       4    7    1        -0.1540481792E-01      0.5254894730E-01
          0                 3           1             4    7     1       0.1950290239E-04       4    7    1         0.1078337632E-02      0.3642316177E-02

    ------------------------------------------------
       NWT REQUIRED            3 OUTER ITERATIONS 
       AND A TOTAL OF          5 INNER ITERATIONS.
    ------------------------------------------------

 NO OUTPUT CONTROL FOR STRESS PERIOD   29   TIME STEP   22
 
 SOLVING FOR HEAD 
                                                   Max.-Head-Change                         Max.-Flux-Residual
  Residual-Control   Outer-Iter.   Inner-Iter.     Column Row Layer    Maximum-Head-Change  Column Row Layer    Maximum-Flux-Residual          L2-NORM 
          0                 1           2             4    7     1       0.2924029576E-02       4    7    1         0.1529858663E+00      0.5174269277E+00
          0                 2           2             4    7     1      -0.2844284834E-03       4    7    1        -0.1529859622E-01      0.5139579167E-01
          0                 3           1             4    7     1       0.1936852356E-04       4    7    1         0.1070902083E-02      0.3565495083E-02

    ------------------------------------------------
       NWT REQUIRED            3 OUTER ITERATIONS 
       AND A TOTAL OF          5 INNER ITERATIONS.
    ------------------------------------------------

 NO OUTPUT CONTROL FOR STRESS PERIOD   29   TIME STEP   23
 
 SOLVING FOR HEAD 
                                                   Max.-Head-Change                         Max.-Flux-Residual
  Residual-Control   Outer-Iter.   Inner-Iter.     Column Row Layer    Maximum-Head-Change  Column Row Layer    Maximum-Flux-Residual          L2-NORM 
          0                 1           2             4    7     1       0.2903945109E-02       4    7    1         0.1519340131E+00      0.5065896834E+00
          0                 2           2             4    7     1      -0.2824748108E-03       4    7    1        -0.1519341076E-01      0.5035181538E-01
          0                 3           1             4    7     1       0.1923548597E-04       4    7    1         0.1063539117E-02      0.3496103304E-02

    ------------------------------------------------
       NWT REQUIRED            3 OUTER ITERATIONS 
       AND A TOTAL OF          5 INNER ITERATIONS.
    ------------------------------------------------

 NO OUTPUT CONTROL FOR STRESS PERIOD   29   TIME STEP   24
 
 SOLVING FOR HEAD 
                                                   Max.-Head-Change                         Max.-Flux-Residual
  Residual-Control   Outer-Iter.   Inner-Iter.     Column Row Layer    Maximum-Head-Change  Column Row Layer    Maximum-Flux-Residual          L2-NORM 
          0                 1           2             4    7     1       0.2884059005E-02       4    7    1         0.1508926528E+00      0.4967529016E+00
          0                 2           2             4    7     1      -0.2805404335E-03       4    7    1        -0.1508927461E-01      0.4940294159E-01
          0                 3           1             4    7     1       0.1910376214E-04       4    7    1         0.1056249596E-02      0.3433201236E-02

    ------------------------------------------------
       NWT REQUIRED            3 OUTER ITERATIONS 
       AND A TOTAL OF          5 INNER ITERATIONS.
    ------------------------------------------------

 NO OUTPUT CONTROL FOR STRESS PERIOD   29   TIME STEP   25
 
 SOLVING FOR HEAD 
                                                   Max.-Head-Change                         Max.-Flux-Residual
  Residual-Control   Outer-Iter.   Inner-Iter.     Column Row Layer    Maximum-Head-Change  Column Row Layer    Maximum-Flux-Residual          L2-NORM 
          0                 1           2             4    7     1       0.2864104490E-02       4    7    1         0.1498467801E+00      0.4878050639E+00
          0                 2           2             4    7     1      -0.2785994010E-03       4    7    1        -0.1498468718E-01      0.4853952469E-01
          0                 3           1             4    7     1       0.1897158485E-04       4    7    1         0.1048928465E-02      0.3375528994E-02

    ------------------------------------------------
       NWT REQUIRED            3 OUTER ITERATIONS 
       AND A TOTAL OF          5 INNER ITERATIONS.
    ------------------------------------------------

 NO OUTPUT CONTROL FOR STRESS PERIOD   29   TIME STEP   26
 
 SOLVING FOR HEAD 
                                                   Max.-Head-Change                         Max.-Flux-Residual
  Residual-Control   Outer-Iter.   Inner-Iter.     Column Row Layer    Maximum-Head-Change  Column Row Layer    Maximum-Flux-Residual          L2-NORM 
          0                 1           2             4    7     1       0.2844624675E-02       4    7    1         0.1488269551E+00      0.4796377473E+00
          0                 2           2             4    7     1      -0.2767045439E-03       4    7    1        -0.1488270453E-01      0.4775039399E-01
          0                 3           1             4    7     1       0.1884255248E-04       4    7    1         0.1041789677E-02      0.3322817929E-02

    ------------------------------------------------
       NWT REQUIRED            3 OUTER ITERATIONS 
       AND A TOTAL OF          5 INNER ITERATIONS.
    ------------------------------------------------

 NO OUTPUT CONTROL FOR STRESS PERIOD   29   TIME STEP   27
 
 SOLVING FOR HEAD 
                                                   Max.-Head-Change                         Max.-Flux-Residual
  Residual-Control   Outer-Iter.   Inner-Iter.     Column Row Layer    Maximum-Head-Change  Column Row Layer    Maximum-Flux-Residual          L2-NORM 
          0                 1           2             4    7     1       0.2825069303E-02       4    7    1         0.1478021479E+00      0.4721627653E+00
          0                 2           2             4    7     1      -0.2748023380E-03       4    7    1        -0.1478022371E-01      0.4702732970E-01
          0                 3           1             4    7     1       0.1871301930E-04       4    7    1         0.1034616026E-02      0.3274427414E-02

    ------------------------------------------------
       NWT REQUIRED            3 OUTER ITERATIONS 
       AND A TOTAL OF          5 INNER ITERATIONS.
    ------------------------------------------------

 NO OUTPUT CONTROL FOR STRESS PERIOD   29   TIME STEP   28
 
 SOLVING FOR HEAD 
                                                   Max.-Head-Change                         Max.-Flux-Residual
  Residual-Control   Outer-Iter.   Inner-Iter.     Column Row Layer    Maximum-Head-Change  Column Row Layer    Maximum-Flux-Residual          L2-NORM 
          0                 1           2             4    7     1       0.2805722117E-02       4    7    1         0.1467882206E+00      0.4653001870E+00
          0                 2           2             4    7     1      -0.2729203821E-03       4    7    1        -0.1467883083E-01      0.4636255946E-01
          0                 3           1             4    7     1       0.1858486499E-04       4    7    1         0.1027518520E-02      0.3229787853E-02

    ------------------------------------------------
       NWT REQUIRED            3 OUTER ITERATIONS 
       AND A TOTAL OF          5 INNER ITERATIONS.
    ------------------------------------------------

 NO OUTPUT CONTROL FOR STRESS PERIOD   29   TIME STEP   29
 
 SOLVING FOR HEAD 
                                                   Max.-Head-Change                         Max.-Flux-Residual
  Residual-Control   Outer-Iter.   Inner-Iter.     Column Row Layer    Maximum-Head-Change  Column Row Layer    Maximum-Flux-Residual          L2-NORM 
          0                 1           2             4   13     1       0.4999537648E-02       4   13    1         0.2883504679E+00      0.6480710859E+00
          0                 2           2             4   13     1      -0.4818473959E-03       4   13    1        -0.2857486083E-01      0.6392484665E-01
          0                 3           1             4   13     1       0.3240629946E-04       4   13    1         0.1975979702E-02      0.4394503494E-02

    ------------------------------------------------
       NWT REQUIRED            3 OUTER ITERATIONS 
       AND A TOTAL OF          5 INNER ITERATIONS.
    ------------------------------------------------

 NO OUTPUT CONTROL FOR STRESS PERIOD   29   TIME STEP   30



 STREAM LISTING     PERIOD     29   STEP       30

 LAYER ROW COL. STREAM  RCH.  FLOW INTO     FLOW TO   FLOW OUT OF   OVRLND.     DIRECT     STREAM       STREAM     STREAM     STREAM   STREAMBED  STREAMBED
                SEG.NO.  NO.  STRM. RCH.    AQUIFER    STRM. RCH.    RUNOFF     PRECIP       ET          HEAD       DEPTH      WIDTH   CONDCTNC.   GRADIENT

   1    1    1     1     1    3.7161E+01  2.9408E-01   3.6867E+01  0.000E+00  0.000E+00  0.000E+00  1.09436E+03  1.310E+00  1.516E+01  6.824E-02  1.437E+00
   1    2    2     1     2    3.6867E+01  4.5538E-01   3.6412E+01  0.000E+00  0.000E+00  0.000E+00  1.08937E+03  1.307E+00  1.511E+01  1.057E-01  1.436E+00
   1    3    3     1     3    3.6412E+01  3.8831E-01   3.6024E+01  0.000E+00  0.000E+00  0.000E+00  1.08372E+03  1.303E+00  1.504E+01  9.023E-02  1.434E+00
   1    3    4     1     4    3.6024E+01  3.5753E-01   3.5666E+01  0.000E+00  0.000E+00  0.000E+00  1.07871E+03  1.300E+00  1.498E+01  8.314E-02  1.433E+00
   1    4    5     2     1    3.3666E+01  3.4626E-01   3.3320E+01  0.000E+00  0.000E+00  0.000E+00  1.07337E+03  1.439E+00  1.200E+01  7.800E-02  1.480E+00
   1    5    6     2     2    3.3320E+01  2.6588E-01   3.3054E+01  0.000E+00  0.000E+00  0.000E+00  1.06794E+03  1.431E+00  1.200E+01  6.000E-02  1.477E+00
   1    6    6     2     3    3.3054E+01  2.6546E-01   3.2789E+01  0.000E+00  0.000E+00  0.000E+00  1.06322E+03  1.424E+00  1.200E+01  6.000E-02  1.475E+00
   1    7    6     2     4    3.2789E+01  2.6505E-01   3.2524E+01  0.000E+00  0.000E+00  0.000E+00  1.05849E+03  1.417E+00  1.200E+01  6.000E-02  1.472E+00
   1    8    6     2     5    3.2524E+01  2.6464E-01   3.2259E+01  0.000E+00  0.000E+00  0.000E+00  1.05377E+03  1.411E+00  1.200E+01  6.000E-02  1.470E+00
   1    3    5     3     1    2.0000E+00  2.8252E-01   1.7175E+00  0.000E+00  0.000E+00  0.000E+00  1.07555E+03  1.909E+00  9.636E+00  7.227E-02  1.955E+00
   1    3    6     3     2    1.7175E+00  2.4905E-01   1.4684E+00  0.000E+00  0.000E+00  0.000E+00  1.07264E+03  1.727E+00  8.909E+00  6.682E-02  1.864E+00
   1    3    7     3     3    1.4684E+00  1.9718E-01   1.2712E+00  0.000E+00  0.000E+00  0.000E+00  1.06987E+03  1.555E+00  8.218E+00  5.547E-02  1.777E+00
   1    4    8     3     4    1.2712E+00  2.2567E-01   1.0456E+00  0.000E+00  0.000E+00  0.000E+00  1.06682E+03  1.364E+00  7.455E+00  6.709E-02  1.682E+00
   1    5    8     3     5    1.0456E+00  1.5790E-01   8.8768E-01  0.000E+00  0.000E+00  0.000E+00  1.06362E+03  1.164E+00  6.655E+00  4.991E-02  1.582E+00
   1    6    8     3     6    8.8768E-01  5.5980E-02   8.3170E-01  0.000E+00  0.000E+00  0.000E+00  1.06158E+03  1.036E+00  6.145E+00  1.844E-02  1.518E+00
   1    5   10     4     1    1.0000E+01  9.0919E-02   9.9091E+00  0.000E+00  0.000E+00  0.000E+00  1.07836E+03  6.368E-01  1.000E+01  2.500E-02  1.212E+00
   1    5    9     4     2    9.9091E+00  1.8158E-01   9.7275E+00  0.000E+00  0.000E+00  0.000E+00  1.07154E+03  6.315E-01  1.000E+01  5.000E-02  1.211E+00
   1    6    8     4     3    9.7275E+00  1.2689E-01   9.6006E+00  0.000E+00  0.000E+00  0.000E+00  1.06381E+03  6.256E-01  1.000E+01  3.500E-02  1.209E+00
   1    6    8     5     1    1.0432E+01  2.2686E-01   1.0205E+01  0.000E+00  0.000E+00  0.000E+00  1.05868E+03  6.790E-01  1.542E+01  6.166E-02  1.226E+00
   1    7    7     5     2    1.0205E+01  2.7894E-01   9.9265E+00  0.000E+00  0.000E+00  0.000E+00  1.05417E+03  6.732E-01  1.519E+01  7.594E-02  1.224E+00
   1    8    7     5     3    9.9265E+00  1.9221E-01   9.7343E+00  0.000E+00  0.000E+00  0.000E+00  1.04992E+03  6.676E-01  1.497E+01  5.241E-02  1.223E+00
   1    8    6     5     4    9.7343E+00  1.3577E-01   9.5985E+00  0.000E+00  0.000E+00  0.000E+00  1.04691E+03  6.637E-01  1.482E+01  3.706E-02  1.221E+00
   1    9    6     6     1    4.1857E+01  2.7961E-01   4.1578E+01  0.000E+00  0.000E+00  0.000E+00  1.04439E+03  1.660E+00  1.200E+01  6.000E-02  1.553E+00
   1   10    7     6     2    4.1578E+01  2.7921E-01   4.1299E+01  0.000E+00  0.000E+00  0.000E+00  1.03984E+03  1.654E+00  1.200E+01  6.000E-02  1.551E+00
   1   11    7     6     3    4.1299E+01  2.7881E-01   4.1020E+01  0.000E+00  0.000E+00  0.000E+00  1.03528E+03  1.647E+00  1.200E+01  6.000E-02  1.549E+00
   1   12    7     6     4    4.1020E+01  2.7841E-01   4.0741E+01  0.000E+00  0.000E+00  0.000E+00  1.03073E+03  1.640E+00  1.200E+01  6.000E-02  1.547E+00
   1   13    7     6     5    4.0741E+01  1.0791E-02   4.0731E+01  0.000E+00  0.000E+00  0.000E+00  1.02755E+03  1.637E+00  1.200E+01  2.400E-02  1.499E-01
   1   14    9     7     1    1.5000E+02  1.3384E+00   1.4866E+02  0.000E+00  0.000E+00  0.000E+00  1.03987E+03  2.288E+00  5.529E+01  5.593E-01  7.977E-01
   1   13    8     7     2    1.4866E+02  1.8323E+00   1.4683E+02  0.000E+00  0.000E+00  0.000E+00  1.03478E+03  2.279E+00  5.526E+01  6.148E-01  9.935E-01
   1   13    7     7     3    1.4683E+02  1.4485E+00   1.4538E+02  0.000E+00  0.000E+00  0.000E+00  1.02969E+03  2.271E+00  5.522E+01  5.585E-01  8.646E-01
   1   13    6     8     1    1.8611E+02  9.6757E-01   1.8514E+02  0.000E+00  0.000E+00  0.000E+00  1.02493E+03  3.051E+00  4.424E+01  4.508E-01  7.154E-01
   1   13    5     8     2    1.8514E+02  1.9126E-01   1.8495E+02  0.000E+00  0.000E+00  0.000E+00  1.01867E+03  3.048E+00  4.419E+01  4.503E-01  1.416E-01
   1   13    4     8     3    1.8495E+02 -2.2552E+00   1.8721E+02  0.000E+00  0.000E+00  0.000E+00  1.01243E+03  3.054E+00  4.428E+01  4.513E+00 -1.666E-01
   1   13    3     8     4    1.8721E+02 -3.4629E+00   1.9067E+02  0.000E+00  0.000E+00  0.000E+00  1.00620E+03  3.071E+00  4.454E+01  4.538E+00 -2.543E-01
   1   13    2     8     5    1.9067E+02 -2.3482E+00   1.9302E+02  0.000E+00  0.000E+00  0.000E+00  9.99964E+02  3.089E+00  4.479E+01  4.564E+00 -1.715E-01
   1   13    1     8     6    1.9302E+02 -1.8911E+00   1.9491E+02  0.000E+00  0.000E+00  0.000E+00  9.94977E+02  3.102E+00  4.498E+01  2.750E+00 -2.292E-01
   1    8    6     9     1    0.0000E+00  0.0000E+00   0.0000E+00  0.000E+00  0.000E+00  0.000E+00  1.07875E+03  0.000E+00  4.000E+00  0.000E+00  1.000E+00
   1    8    5     9     2    0.0000E+00  0.0000E+00   0.0000E+00  0.000E+00  0.000E+00  0.000E+00  1.07825E+03  0.000E+00  4.000E+00  0.000E+00  1.000E+00





UNSATURATED ZONE PACKAGE VOLUMETRIC BUDGET FOR  TIME STEP    30 STRESS PERIOD   29
  ------------------------------------------------------------------------------



     CUMULATIVE VOLUMES      L**3       RATES FOR THIS TIME STEP      L**3/T
     ------------------                 ------------------------

           IN:                                      IN:
           ---                                      ---
        INFILTRATION =  1123416491.9939          INFILTRATION =           4.4075

          OUT:                                     OUT:
          ----                                     ----
              UZF ET =  1028517265.9124                UZF ET =           4.4075
        UZF RECHARGE =     1182082.7488          UZF RECHARGE =       0.0000E+00

            IN - OUT =    93717143.3328              IN - OUT =       0.0000E+00

          STORAGE:                                 STORAGE:
          --------                                 --------
      STORAGE CHANGE =    93718119.8759        STORAGE CHANGE =       1.8093E-14

 PERCENT DISCREPANCY IS DIFFERENCE BETWEEN IN-OUT MINUS CHANGE IN STORAGE
 DIVIDED BY THE AVERAGE OF IN AND OUT TIMES 100

 PERCENT DISCREPANCY =          -0.00     PERCENT DISCREPANCY =           0.00






1
  VOLUMETRIC BUDGET FOR AGRICULTURAL FIELDS AT TIME STEP   30, STRESS PERIOD  29
  ------------------------------------------------------------------------------

     CUMULATIVE VOLUMES      L**3       RATES FOR THIS TIME STEP      L**3/T
     ------------------                 ------------------------

           IN:                                      IN:
           ---                                      ---
               AG WELLS  =   175546176.0000                 AG WELLS  =           0.0000
      DIVERSION SEGMENTS =   623216576.0000        DIVERSION SEGMENTS =           0.0000
           GW IRRIGATION =           0.0000             GW IRRIGATION =           0.0000
           SW IRRIGATION =           0.0000             SW IRRIGATION =           0.0000
        SYSTEM LOSSES GW =           0.0000          SYSTEM LOSSES GW =           0.0000
        SYSTEM LOSSES SW =           0.0000          SYSTEM LOSSES SW =           0.0000

                TOTAL IN =   798762752.0000                  TOTAL IN =           0.0000

          OUT:                                     OUT:
          ----                                     ----
               AG WELLS  =           0.0000                 AG WELLS  =           0.0000
      DIVERSION SEGMENTS =           0.0000        DIVERSION SEGMENTS =           0.0000
           GW IRRIGATION =   175546176.0000             GW IRRIGATION =           0.0000
           SW IRRIGATION =   623229888.0000             SW IRRIGATION =           0.0000
        SYSTEM LOSSES GW =           0.0000          SYSTEM LOSSES GW =           0.0000
        SYSTEM LOSSES SW =           0.0000          SYSTEM LOSSES SW =           0.0000

               TOTAL OUT =   798776064.0000                 TOTAL OUT =           0.0000

                IN - OUT =      -13312.0000                  IN - OUT =           0.0000

     PERCENT DISCREPANCY =          -0.00         PERCENT DISCREPANCY =           0.00



1
  VOLUMETRIC BUDGET FOR ENTIRE MODEL AT END OF TIME STEP   30, STRESS PERIOD  29
  ------------------------------------------------------------------------------

     CUMULATIVE VOLUMES      L**3       RATES FOR THIS TIME STEP      L**3/T
     ------------------                 ------------------------

           IN:                                      IN:
           ---                                      ---
             STORAGE     =   304345120.0000               STORAGE     =           0.8629
       CONSTANT HEAD     =           0.0000         CONSTANT HEAD     =           0.0000
     HEAD DEP BOUNDS     =    21069472.0000       HEAD DEP BOUNDS     =           0.2859
      STREAM LEAKAGE     =   874105984.0000        STREAM LEAKAGE     =          12.2089
        UZF RECHARGE     =     1182082.6250          UZF RECHARGE     =           0.0000
               GW ET     =           0.0000                 GW ET     =           0.0000
     SURFACE LEAKAGE     =           0.0000       SURFACE LEAKAGE     =           0.0000
           AG WELLS      =           0.0000             AG WELLS      =           0.0000

                TOTAL IN =  1200702592.0000                  TOTAL IN =          13.3578

          OUT:                                     OUT:
          ----                                     ----
             STORAGE     =   201381056.0000               STORAGE     =           3.1099
       CONSTANT HEAD     =           0.0000         CONSTANT HEAD     =           0.0000
     HEAD DEP BOUNDS     =    21428984.0000       HEAD DEP BOUNDS     =           0.2913
      STREAM LEAKAGE     =   800043008.0000        STREAM LEAKAGE     =           9.9573
        UZF RECHARGE     =           0.0000          UZF RECHARGE     =           0.0000
               GW ET     =     2271476.5000                 GW ET     =           0.0000
     SURFACE LEAKAGE     =           0.0000       SURFACE LEAKAGE     =           0.0000
           AG WELLS      =   175546176.0000             AG WELLS      =           0.0000

               TOTAL OUT =  1200670720.0000                 TOTAL OUT =          13.3584

                IN - OUT =       31872.0000                  IN - OUT =      -6.3610E-04

     PERCENT DISCREPANCY =           0.00         PERCENT DISCREPANCY =          -0.00






         TIME SUMMARY AT END OF TIME STEP   30 IN STRESS PERIOD   29
                    SECONDS     MINUTES      HOURS       DAYS        YEARS
                    -----------------------------------------------------------
   TIME STEP LENGTH  87667.      1461.1      24.352      1.0147     2.77799E-03
 STRESS PERIOD TIME 2.63000E+06  43833.      730.56      30.440     8.33397E-02
         TOTAL TIME 7.37266E+07 1.22878E+06  20480.      853.32      2.3363    
1
1
                            STRESS PERIOD NO.   30, LENGTH =   2630000.    
                            -----------------------------------------------

                              NUMBER OF TIME STEPS =    30

                               MULTIPLIER FOR DELT =     1.000

                            INITIAL TIME STEP SIZE =   87666.66    

 REUSING NON-PARAMETER GHB CELLS FROM LAST STRESS PERIOD

      2 GHB CELLS

 REUSING STREAM SEGMENT DATA FROM LAST STRESS PERIOD



            AREAL INFILTRATION RATE
 READING ON UNIT   19 WITH FORMAT: (10F4.0)            

            1           2           3           4           5           6           7           8           9          10
 ........................................................................................................................
   1   1.2000E-09   0.000       0.000       0.000       0.000       0.000       0.000       0.000       0.000       0.000    
   2   2.1000E-09  2.0000E-09  8.0000E-10  8.5000E-09   0.000       0.000       0.000       0.000       0.000       0.000    
   3   5.0000E-10  1.1000E-09  8.8000E-09  5.5000E-09   0.000       0.000       0.000       0.000       0.000       0.000    
   4   8.5000E-09  1.1000E-09  1.1000E-09  1.1000E-09  2.0000E-09   0.000       0.000       0.000       0.000       0.000    
   5   8.5000E-09  1.1000E-09  1.1000E-09  1.1000E-09  1.1000E-09   0.000       0.000       0.000       0.000       0.000    
   6   8.5000E-09  5.2000E-09  2.1000E-09  1.1000E-09  1.5000E-09   0.000       0.000       0.000       0.000       0.000    
   7   8.5000E-09  5.2000E-09  2.1000E-09  1.2000E-09  2.0000E-09   0.000       0.000       0.000       0.000       0.000    
   8   5.0000E-10  5.2000E-09  2.1000E-09  1.2000E-09  5.0000E-09   0.000       0.000       0.000       0.000       0.000    
   9   5.0000E-10  5.2000E-09  2.1000E-09  1.2000E-09  5.0000E-09   0.000       0.000       0.000       0.000       0.000    
  10   5.0000E-10  5.2000E-09  2.1000E-09  1.2000E-09  5.8000E-09   0.000       0.000       0.000       0.000       0.000    
  11   1.0000E-10  1.1000E-09  1.1000E-09  1.2000E-09  5.0000E-09   0.000       0.000       0.000       0.000       0.000    
  12   1.1000E-09  1.1000E-09  1.1000E-09  1.1000E-09  2.0000E-09   0.000       0.000       0.000       0.000       0.000    
  13   1.1000E-09  2.2000E-09  2.2000E-09  2.1000E-09  1.0000E-09   0.000       0.000       0.000       0.000       0.000    
  14   2.0000E-10  5.5000E-09  5.5000E-09  5.2000E-09  1.0000E-09   0.000       0.000       0.000       0.000       0.000    
  15    0.000      8.8000E-09  8.8000E-09   0.000       0.000       0.000       0.000       0.000       0.000       0.000    

                  ET RATE =  5.000000E-08

 USING ET EXTINCTION DEPTH FROM PREVIOUS STRESS PERIOD. CURRENT PERIOD IS:      30

 USING EXTINCTION WATER CONTENT FROM PREVIOUS STRESS PERIOD. CURRENT PERIOD IS:      30

 USING AIR ENTRY PRESSURE FROM PREVIOUS STRESS PERIOD. CURRENT PERIOD IS:      30

 USING ROOT PRESSURE HEAD FROM PREVIOUS STRESS PERIOD. CURRENT PERIOD IS:      30

 USING ROOT ACTIVITY FROM PREVIOUS STRESS PERIOD. CURRENT PERIOD IS:      30

 PROCESSING AG STRESS PERIOD DATA

 READING AG STRESS PERIOD DATA

 READING IRRIGATION SEGMENT

 READING IRRIGATION WELL

 READING SUPPLEMENTAL WELL

 END PROCESSING AG STRESS PERIOD DATA OPTIONS
 
 SOLVING FOR HEAD 
                                                   Max.-Head-Change                         Max.-Flux-Residual
  Residual-Control   Outer-Iter.   Inner-Iter.     Column Row Layer    Maximum-Head-Change  Column Row Layer    Maximum-Flux-Residual          L2-NORM 
          0                 1           2             4   13     1       0.1900507312E-01       4   13    1         0.1097849175E+01      0.1984771608E+01
          0                 2           2             4   13     1      -0.4669542321E-02       4   13    1        -0.2769175445E+00      0.4777767195E+00
          0                 3           2             4   13     1       0.3132829314E-03       4   13    1         0.1910176925E-01      0.3203789013E-01
          0                 4           1             4   13     1      -0.1215592406E-04       4   13    1        -0.7620911101E-03      0.1219648123E-02

    ------------------------------------------------
       NWT REQUIRED            4 OUTER ITERATIONS 
       AND A TOTAL OF          7 INNER ITERATIONS.
    ------------------------------------------------

 NO OUTPUT CONTROL FOR STRESS PERIOD   30   TIME STEP    1
 
 SOLVING FOR HEAD 
                                                   Max.-Head-Change                         Max.-Flux-Residual
  Residual-Control   Outer-Iter.   Inner-Iter.     Column Row Layer    Maximum-Head-Change  Column Row Layer    Maximum-Flux-Residual          L2-NORM 
          0                 1           2             4   13     1       0.1739942313E-01       4   13    1         0.1004643546E+01      0.1859487590E+01
          0                 2           2             4   13     1      -0.4397371866E-02       4   13    1        -0.2607368369E+00      0.4533510850E+00
          0                 3           2             4   13     1       0.2950325227E-03       4   13    1         0.1798576361E-01      0.3040591355E-01
          0                 4           1             4   13     1      -0.1146438457E-04       4   13    1        -0.7185730728E-03      0.1158275808E-02

    ------------------------------------------------
       NWT REQUIRED            4 OUTER ITERATIONS 
       AND A TOTAL OF          7 INNER ITERATIONS.
    ------------------------------------------------

 NO OUTPUT CONTROL FOR STRESS PERIOD   30   TIME STEP    2
 
 SOLVING FOR HEAD 
                                                   Max.-Head-Change                         Max.-Flux-Residual
  Residual-Control   Outer-Iter.   Inner-Iter.     Column Row Layer    Maximum-Head-Change  Column Row Layer    Maximum-Flux-Residual          L2-NORM 
          0                 1           2             4   13     1       0.1594925446E-01       4   13    1         0.9204888833E+00      0.1745717804E+01
          0                 2           2             4   13     1      -0.4255944583E-02       4   13    1        -0.2523044371E+00      0.4417203278E+00
          0                 3           2             4   13     1       0.2855643402E-03       4   13    1         0.1740597558E-01      0.2963233845E-01
          0                 4           1             4   13     1      -0.1109296440E-04       4   13    1        -0.6952425001E-03      0.1129614939E-02

    ------------------------------------------------
       NWT REQUIRED            4 OUTER ITERATIONS 
       AND A TOTAL OF          7 INNER ITERATIONS.
    ------------------------------------------------

 NO OUTPUT CONTROL FOR STRESS PERIOD   30   TIME STEP    3
 
 SOLVING FOR HEAD 
                                                   Max.-Head-Change                         Max.-Flux-Residual
  Residual-Control   Outer-Iter.   Inner-Iter.     Column Row Layer    Maximum-Head-Change  Column Row Layer    Maximum-Flux-Residual          L2-NORM 
          0                 1           2             2   13     1       0.1465534718E-01       4   13    1         0.8450973506E+00      0.1643230601E+01
          0                 2           2             4   13     1      -0.4129155729E-02       4   13    1        -0.2446282393E+00      0.4418926608E+00
          0                 3           2             4   13     1       0.2770463903E-03       4   13    1         0.1687546174E-01      0.2966126464E-01
          0                 4           1             4   13     1      -0.1075704992E-04       4   13    1        -0.6737171880E-03      0.1131483978E-02

    ------------------------------------------------
       NWT REQUIRED            4 OUTER ITERATIONS 
       AND A TOTAL OF          7 INNER ITERATIONS.
    ------------------------------------------------

 NO OUTPUT CONTROL FOR STRESS PERIOD   30   TIME STEP    4
 
 SOLVING FOR HEAD 
                                                   Max.-Head-Change                         Max.-Flux-Residual
  Residual-Control   Outer-Iter.   Inner-Iter.     Column Row Layer    Maximum-Head-Change  Column Row Layer    Maximum-Flux-Residual          L2-NORM 
          0                 1           2             2   13     1       0.1369644623E-01       4   13    1         0.7774183951E+00      0.1545764594E+01
          0                 2           2             4   13     1      -0.4008518115E-02       4   13    1        -0.2376471439E+00      0.4204193644E+00
          0                 3           2             4   13     1       0.2689719619E-03       4   13    1         0.1639508744E-01      0.2822588632E-01
          0                 4           1             4   13     1      -0.1044846800E-04       4   13    1        -0.6548461179E-03      0.1077559588E-02

    ------------------------------------------------
       NWT REQUIRED            4 OUTER ITERATIONS 
       AND A TOTAL OF          7 INNER ITERATIONS.
    ------------------------------------------------

 NO OUTPUT CONTROL FOR STRESS PERIOD   30   TIME STEP    5
 
 SOLVING FOR HEAD 
                                                   Max.-Head-Change                         Max.-Flux-Residual
  Residual-Control   Outer-Iter.   Inner-Iter.     Column Row Layer    Maximum-Head-Change  Column Row Layer    Maximum-Flux-Residual          L2-NORM 
          0                 1           2             2   13     1       0.1281364596E-01       2   13    1         0.7259582869E+00      0.1454653610E+01
          0                 2           2             4   13     1      -0.3571967863E-02       4   13    1        -0.2197180499E+00      0.3861363369E+00
          0                 3           2             2   13     1       0.2259288081E-03       2   13    1         0.1351284417E-01      0.2346407529E-01
          0                 4           1             2   13     1      -0.8127451829E-05       2   13    1        -0.4995374693E-03      0.8959088969E-03

    ------------------------------------------------
       NWT REQUIRED            4 OUTER ITERATIONS 
       AND A TOTAL OF          7 INNER ITERATIONS.
    ------------------------------------------------

 NO OUTPUT CONTROL FOR STRESS PERIOD   30   TIME STEP    6
 
 SOLVING FOR HEAD 
                                                   Max.-Head-Change                         Max.-Flux-Residual
  Residual-Control   Outer-Iter.   Inner-Iter.     Column Row Layer    Maximum-Head-Change  Column Row Layer    Maximum-Flux-Residual          L2-NORM 
          0                 1           2             2   13     1       0.1197871238E-01       2   13    1         0.6787172538E+00      0.1371704289E+01
          0                 2           2             4   13     1      -0.4048777812E-02       4   13    1        -0.2492111830E+00      0.4156479225E+00
          0                 3           2             4   13     1       0.2631738808E-03       4   13    1         0.1665534458E-01      0.2700407441E-01
          0                 4           1             4   13     1      -0.1583214256E-04       4   13    1        -0.1029788860E-02      0.1657936835E-02

    ------------------------------------------------
       NWT REQUIRED            4 OUTER ITERATIONS 
       AND A TOTAL OF          7 INNER ITERATIONS.
    ------------------------------------------------

 NO OUTPUT CONTROL FOR STRESS PERIOD   30   TIME STEP    7
 
 SOLVING FOR HEAD 
                                                   Max.-Head-Change                         Max.-Flux-Residual
  Residual-Control   Outer-Iter.   Inner-Iter.     Column Row Layer    Maximum-Head-Change  Column Row Layer    Maximum-Flux-Residual          L2-NORM 
          0                 1           2             2   13     1       0.1123105798E-01       2   13    1         0.6363997739E+00      0.1294486457E+01
          0                 2           2             2   13     1      -0.3414352846E-02       4   13    1        -0.2051848862E+00      0.3682009934E+00
          0                 3           1             2    2     1       0.3386690761E-04       2    2    1         0.1869380253E-02      0.4601190310E-02

    ------------------------------------------------
       NWT REQUIRED            3 OUTER ITERATIONS 
       AND A TOTAL OF          5 INNER ITERATIONS.
    ------------------------------------------------

 NO OUTPUT CONTROL FOR STRESS PERIOD   30   TIME STEP    8
 
 SOLVING FOR HEAD 
                                                   Max.-Head-Change                         Max.-Flux-Residual
  Residual-Control   Outer-Iter.   Inner-Iter.     Column Row Layer    Maximum-Head-Change  Column Row Layer    Maximum-Flux-Residual          L2-NORM 
          0                 1           2             2   13     1       0.1053890729E-01       2   13    1         0.5972094496E+00      0.1224985189E+01
          0                 2           2             2   13     1      -0.3313789954E-02       4   13    1        -0.1972924215E+00      0.3566141254E+00
          0                 3           1             2   13     1      -0.3907668514E-04       3   13    1        -0.2282526254E-02      0.6030742999E-02

    ------------------------------------------------
       NWT REQUIRED            3 OUTER ITERATIONS 
       AND A TOTAL OF          5 INNER ITERATIONS.
    ------------------------------------------------

 NO OUTPUT CONTROL FOR STRESS PERIOD   30   TIME STEP    9
 
 SOLVING FOR HEAD 
                                                   Max.-Head-Change                         Max.-Flux-Residual
  Residual-Control   Outer-Iter.   Inner-Iter.     Column Row Layer    Maximum-Head-Change  Column Row Layer    Maximum-Flux-Residual          L2-NORM 
          0                 1           2             2   13     1       0.9901391431E-02       2   13    1         0.5611014535E+00      0.1164303635E+01
          0                 2           2             2   13     1      -0.3208338844E-02       4   13    1        -0.1895780524E+00      0.3448628140E+00
          0                 3           1             2   13     1      -0.8052728967E-04       4   13    1        -0.4864345978E-02      0.9620280549E-02

    ------------------------------------------------
       NWT REQUIRED            3 OUTER ITERATIONS 
       AND A TOTAL OF          5 INNER ITERATIONS.
    ------------------------------------------------

 NO OUTPUT CONTROL FOR STRESS PERIOD   30   TIME STEP   10
 
 SOLVING FOR HEAD 
                                                   Max.-Head-Change                         Max.-Flux-Residual
  Residual-Control   Outer-Iter.   Inner-Iter.     Column Row Layer    Maximum-Head-Change  Column Row Layer    Maximum-Flux-Residual          L2-NORM 
          0                 1           2             2   13     1       0.9313625737E-02       2   13    1         0.5278020304E+00      0.1111121269E+01
          0                 2           2             2   13     1      -0.3109414908E-02       4   13    1        -0.1826485180E+00      0.3340720647E+00
          0                 3           2             4   13     1      -0.1205507970E-03       4   13    1        -0.7423254830E-02      0.1361074493E-01
          0                 4           1             2   13     1      -0.7818677305E-04       4   13    1        -0.4794983442E-02      0.8374282296E-02

    ------------------------------------------------
       NWT REQUIRED            4 OUTER ITERATIONS 
       AND A TOTAL OF          7 INNER ITERATIONS.
    ------------------------------------------------

 NO OUTPUT CONTROL FOR STRESS PERIOD   30   TIME STEP   11
 
 SOLVING FOR HEAD 
                                                   Max.-Head-Change                         Max.-Flux-Residual
  Residual-Control   Outer-Iter.   Inner-Iter.     Column Row Layer    Maximum-Head-Change  Column Row Layer    Maximum-Flux-Residual          L2-NORM 
          0                 1           2             2   13     1       0.8778903670E-02       2   13    1         0.4974992927E+00      0.1065072509E+01
          0                 2           2             2   13     1      -0.3054840012E-02       4   13    1        -0.1787957993E+00      0.3281809640E+00
          0                 3           2             4   13     1      -0.1209565053E-03       4   13    1        -0.7448959648E-02      0.1358706212E-01
          0                 4           1             2   13     1      -0.8113850960E-04       4   13    1        -0.4975313170E-02      0.8691718898E-02

    ------------------------------------------------
       NWT REQUIRED            4 OUTER ITERATIONS 
       AND A TOTAL OF          7 INNER ITERATIONS.
    ------------------------------------------------

 NO OUTPUT CONTROL FOR STRESS PERIOD   30   TIME STEP   12
 
 SOLVING FOR HEAD 
                                                   Max.-Head-Change                         Max.-Flux-Residual
  Residual-Control   Outer-Iter.   Inner-Iter.     Column Row Layer    Maximum-Head-Change  Column Row Layer    Maximum-Flux-Residual          L2-NORM 
          0                 1           2             2   13     1       0.8286595929E-02       2   13    1         0.4695940136E+00      0.1024501692E+01
          0                 2           2             2   13     1      -0.3004746129E-02       4   13    1        -0.1754645347E+00      0.3229208261E+00
          0                 3           2             4   13     1      -0.1206235798E-03       4   13    1        -0.7429043641E-02      0.1350485594E-01
          0                 4           1             2   13     1      -0.8401861736E-04       4   13    1        -0.5154759516E-02      0.9004988100E-02

    ------------------------------------------------
       NWT REQUIRED            4 OUTER ITERATIONS 
       AND A TOTAL OF          7 INNER ITERATIONS.
    ------------------------------------------------

 NO OUTPUT CONTROL FOR STRESS PERIOD   30   TIME STEP   13
 
 SOLVING FOR HEAD 
                                                   Max.-Head-Change                         Max.-Flux-Residual
  Residual-Control   Outer-Iter.   Inner-Iter.     Column Row Layer    Maximum-Head-Change  Column Row Layer    Maximum-Flux-Residual          L2-NORM 
          0                 1           2             2   13     1       0.7833433077E-02       2   13    1         0.4439024013E+00      0.9886510421E+00
          0                 2           2             2   13     1      -0.2958603327E-02       4   13    1        -0.1725765512E+00      0.3182007903E+00
          0                 3           2             4   13     1      -0.1197914029E-03       4   13    1        -0.7378241004E-02      0.1338890007E-01
          0                 4           1             2   13     1      -0.8687737166E-04       4   13    1        -0.5332368699E-02      0.9314204893E-02

    ------------------------------------------------
       NWT REQUIRED            4 OUTER ITERATIONS 
       AND A TOTAL OF          7 INNER ITERATIONS.
    ------------------------------------------------

 NO OUTPUT CONTROL FOR STRESS PERIOD   30   TIME STEP   14
 
 SOLVING FOR HEAD 
                                                   Max.-Head-Change                         Max.-Flux-Residual
  Residual-Control   Outer-Iter.   Inner-Iter.     Column Row Layer    Maximum-Head-Change  Column Row Layer    Maximum-Flux-Residual          L2-NORM 
          0                 1           2             2   13     1       0.7416536450E-02       2   13    1         0.4202627358E+00      0.9568807071E+00
          0                 2           2             2   13     1      -0.2916063410E-02       4   13    1        -0.1700651718E+00      0.3139532652E+00
          0                 3           2             4   13     1      -0.1186864949E-03       4   13    1        -0.7310582492E-02      0.1325320220E-01
          0                 4           1             2   13     1      -0.8967539530E-04       4   13    1        -0.5507726699E-02      0.9619017933E-02

    ------------------------------------------------
       NWT REQUIRED            4 OUTER ITERATIONS 
       AND A TOTAL OF          7 INNER ITERATIONS.
    ------------------------------------------------

 NO OUTPUT CONTROL FOR STRESS PERIOD   30   TIME STEP   15
 
 SOLVING FOR HEAD 
                                                   Max.-Head-Change                         Max.-Flux-Residual
  Residual-Control   Outer-Iter.   Inner-Iter.     Column Row Layer    Maximum-Head-Change  Column Row Layer    Maximum-Flux-Residual          L2-NORM 
          0                 1           2             2   13     1       0.7033019604E-02       2   13    1         0.3985124691E+00      0.9286503721E+00
          0                 2           2             2   13     1      -0.2876718862E-02       4   13    1        -0.1678728419E+00      0.3101086782E+00
          0                 3           2             4   13     1      -0.1168805263E-03       4   13    1        -0.7199647172E-02      0.1305997433E-01
          0                 4           1             2   13     1      -0.9282302787E-04       4   13    1        -0.5707283612E-02      0.9962131577E-02

    ------------------------------------------------
       NWT REQUIRED            4 OUTER ITERATIONS 
       AND A TOTAL OF          7 INNER ITERATIONS.
    ------------------------------------------------

 NO OUTPUT CONTROL FOR STRESS PERIOD   30   TIME STEP   16
 
 SOLVING FOR HEAD 
                                                   Max.-Head-Change                         Max.-Flux-Residual
  Residual-Control   Outer-Iter.   Inner-Iter.     Column Row Layer    Maximum-Head-Change  Column Row Layer    Maximum-Flux-Residual          L2-NORM 
          0                 1           2             2   13     1       0.6680365890E-02       2   13    1         0.3785098350E+00      0.9034808153E+00
          0                 2           2             2   13     1      -0.2842536467E-02       2   13    1        -0.1654172573E+00      0.3051853685E+00
          0                 3           2             4   13     1      -0.1703837265E-03       4   13    1        -0.1052458182E-01      0.1513665339E-01
          0                 4           1             2   13     1      -0.9309311894E-04       4   13    1        -0.5489459620E-02      0.9859265379E-02

    ------------------------------------------------
       NWT REQUIRED            4 OUTER ITERATIONS 
       AND A TOTAL OF          7 INNER ITERATIONS.
    ------------------------------------------------

 NO OUTPUT CONTROL FOR STRESS PERIOD   30   TIME STEP   17
 
 SOLVING FOR HEAD 
                                                   Max.-Head-Change                         Max.-Flux-Residual
  Residual-Control   Outer-Iter.   Inner-Iter.     Column Row Layer    Maximum-Head-Change  Column Row Layer    Maximum-Flux-Residual          L2-NORM 
          0                 1           2             2   13     1       0.6356229233E-02       2   13    1         0.3601225392E+00      0.8809813273E+00
          0                 2           2             2   13     1      -0.2807896614E-02       2   13    1        -0.1634000742E+00      0.2954981930E+00
          0                 3           2             4   13     1      -0.3861902031E-03       4   13    1        -0.2393347226E-01      0.2637962598E-01
          0                 4           1             2   13     1      -0.9358985431E-04       2   13    1        -0.5445367895E-02      0.9426259756E-02

    ------------------------------------------------
       NWT REQUIRED            4 OUTER ITERATIONS 
       AND A TOTAL OF          7 INNER ITERATIONS.
    ------------------------------------------------

 NO OUTPUT CONTROL FOR STRESS PERIOD   30   TIME STEP   18
 
 SOLVING FOR HEAD 
                                                   Max.-Head-Change                         Max.-Flux-Residual
  Residual-Control   Outer-Iter.   Inner-Iter.     Column Row Layer    Maximum-Head-Change  Column Row Layer    Maximum-Flux-Residual          L2-NORM 
          0                 1           2             2   13     1       0.6058402537E-02       2   13    1         0.3432261036E+00      0.8608076769E+00
          0                 2           2             2   13     1      -0.2777936182E-02       2   13    1        -0.1616549770E+00      0.2873642872E+00
          0                 3           2             4   13     1      -0.3983977375E-03       4   13    1        -0.2469139304E-01      0.2710466634E-01
          0                 4           1             4   13     1      -0.1181634818E-03       4   13    1        -0.7283074157E-02      0.1097995654E-01
          0                 5           1             4   13     1      -0.3876245512E-04       4   13    1        -0.2391335935E-02      0.3394869805E-02

    ------------------------------------------------
       NWT REQUIRED            5 OUTER ITERATIONS 
       AND A TOTAL OF          8 INNER ITERATIONS.
    ------------------------------------------------

 NO OUTPUT CONTROL FOR STRESS PERIOD   30   TIME STEP   19
 
 SOLVING FOR HEAD 
                                                   Max.-Head-Change                         Max.-Flux-Residual
  Residual-Control   Outer-Iter.   Inner-Iter.     Column Row Layer    Maximum-Head-Change  Column Row Layer    Maximum-Flux-Residual          L2-NORM 
          0                 1           2             2   13     1       0.5787409514E-02       2   13    1         0.3278499331E+00      0.8426920797E+00
          0                 2           2             2   13     1      -0.2746814959E-02       2   13    1        -0.1598419290E+00      0.2831795274E+00
          0                 3           2             4   13     1      -0.3966569216E-03       4   13    1        -0.2458147460E-01      0.2709840119E-01
          0                 4           1             4   13     1      -0.1183375937E-03       4   13    1        -0.7293877741E-02      0.1099005945E-01
          0                 5           1             4   13     1      -0.3881095910E-04       4   13    1        -0.2394317324E-02      0.3399178131E-02

    ------------------------------------------------
       NWT REQUIRED            5 OUTER ITERATIONS 
       AND A TOTAL OF          8 INNER ITERATIONS.
    ------------------------------------------------

 NO OUTPUT CONTROL FOR STRESS PERIOD   30   TIME STEP   20
 
 SOLVING FOR HEAD 
                                                   Max.-Head-Change                         Max.-Flux-Residual
  Residual-Control   Outer-Iter.   Inner-Iter.     Column Row Layer    Maximum-Head-Change  Column Row Layer    Maximum-Flux-Residual          L2-NORM 
          0                 1           2             2   13     1       0.5538411375E-02       2   13    1         0.3137208364E+00      0.8261376888E+00
          0                 2           2             2   13     1      -0.2720973630E-02       2   13    1        -0.1583357537E+00      0.2814181699E+00
          0                 3           2             4   13     1      -0.3960400400E-03       4   13    1        -0.2454267425E-01      0.2708957925E-01
          0                 4           1             4   13     1      -0.1179899348E-03       4   13    1        -0.7272527300E-02      0.1094896028E-01
          0                 5           1             4   13     1      -0.3864646161E-04       4   13    1        -0.2384168176E-02      0.3384754898E-02

    ------------------------------------------------
       NWT REQUIRED            5 OUTER ITERATIONS 
       AND A TOTAL OF          8 INNER ITERATIONS.
    ------------------------------------------------

 NO OUTPUT CONTROL FOR STRESS PERIOD   30   TIME STEP   21
 
 SOLVING FOR HEAD 
                                                   Max.-Head-Change                         Max.-Flux-Residual
  Residual-Control   Outer-Iter.   Inner-Iter.     Column Row Layer    Maximum-Head-Change  Column Row Layer    Maximum-Flux-Residual          L2-NORM 
          0                 1           2             2   13     1       0.5309544740E-02       2   13    1         0.3007337315E+00      0.8112299202E+00
          0                 2           2             2   13     1      -0.2697144779E-02       2   13    1        -0.1569468739E+00      0.2797869325E+00
          0                 3           2             4   13     1      -0.3955525640E-03       4   13    1        -0.2451185836E-01      0.2708963267E-01
          0                 4           1             4   13     1      -0.1176796328E-03       4   13    1        -0.7253489655E-02      0.1091176133E-01
          0                 5           1             4   13     1      -0.3853433871E-04       4   13    1        -0.2377270941E-02      0.3373074586E-02

    ------------------------------------------------
       NWT REQUIRED            5 OUTER ITERATIONS 
       AND A TOTAL OF          8 INNER ITERATIONS.
    ------------------------------------------------

 NO OUTPUT CONTROL FOR STRESS PERIOD   30   TIME STEP   22
 
 SOLVING FOR HEAD 
                                                   Max.-Head-Change                         Max.-Flux-Residual
  Residual-Control   Outer-Iter.   Inner-Iter.     Column Row Layer    Maximum-Head-Change  Column Row Layer    Maximum-Flux-Residual          L2-NORM 
          0                 1           2             2   13     1       0.5099251197E-02       2   13    1         0.2888004285E+00      0.7977418421E+00
          0                 2           2             2   13     1      -0.2675198647E-02       2   13    1        -0.1556677074E+00      0.2782803486E+00
          0                 3           2             4   13     1      -0.3951463755E-03       4   13    1        -0.2448617393E-01      0.2709136041E-01
          0                 4           1             4   13     1      -0.1174653513E-03       4   13    1        -0.7240312832E-02      0.1088497100E-01
          0                 5           1             4   13     1      -0.3839440213E-04       4   13    1        -0.2368631656E-02      0.3361242035E-02

    ------------------------------------------------
       NWT REQUIRED            5 OUTER ITERATIONS 
       AND A TOTAL OF          8 INNER ITERATIONS.
    ------------------------------------------------

 NO OUTPUT CONTROL FOR STRESS PERIOD   30   TIME STEP   23
 
 SOLVING FOR HEAD 
                                                   Max.-Head-Change                         Max.-Flux-Residual
  Residual-Control   Outer-Iter.   Inner-Iter.     Column Row Layer    Maximum-Head-Change  Column Row Layer    Maximum-Flux-Residual          L2-NORM 
          0                 1           2             2   13     1       0.4905944882E-02       2   13    1         0.2778310119E+00      0.7855083167E+00
          0                 2           2             2   13     1      -0.2654900235E-02       2   13    1        -0.1544845866E+00      0.2768803352E+00
          0                 3           2             4   13     1      -0.3948337174E-03       4   13    1        -0.2446623577E-01      0.2710046222E-01
          0                 4           1             4   13     1      -0.1172508805E-03       4   13    1        -0.7227153345E-02      0.1085811319E-01
          0                 5           1             4   13     1      -0.3830469586E-04       4   13    1        -0.2363108544E-02      0.3352300200E-02

    ------------------------------------------------
       NWT REQUIRED            5 OUTER ITERATIONS 
       AND A TOTAL OF          8 INNER ITERATIONS.
    ------------------------------------------------

 NO OUTPUT CONTROL FOR STRESS PERIOD   30   TIME STEP   24
 
 SOLVING FOR HEAD 
                                                   Max.-Head-Change                         Max.-Flux-Residual
  Residual-Control   Outer-Iter.   Inner-Iter.     Column Row Layer    Maximum-Head-Change  Column Row Layer    Maximum-Flux-Residual          L2-NORM 
          0                 1           2             2   13     1       0.4728445567E-02       2   13    1         0.2677588047E+00      0.7743820498E+00
          0                 2           2             2   13     1      -0.2636253313E-02       2   13    1        -0.1533977769E+00      0.2755857666E+00
          0                 3           2             4   13     1      -0.3945869091E-03       4   13    1        -0.2445041214E-01      0.2711185258E-01
          0                 4           1             4   13     1      -0.1170945319E-03       4   13    1        -0.7217579334E-02      0.1083656537E-01
          0                 5           1             4   13     1      -0.3823161136E-04       4   13    1        -0.2358590646E-02      0.3345962450E-02

    ------------------------------------------------
       NWT REQUIRED            5 OUTER ITERATIONS 
       AND A TOTAL OF          8 INNER ITERATIONS.
    ------------------------------------------------

 NO OUTPUT CONTROL FOR STRESS PERIOD   30   TIME STEP   25
 
 SOLVING FOR HEAD 
                                                   Max.-Head-Change                         Max.-Flux-Residual
  Residual-Control   Outer-Iter.   Inner-Iter.     Column Row Layer    Maximum-Head-Change  Column Row Layer    Maximum-Flux-Residual          L2-NORM 
          0                 1           2             1    1     1       0.4668894962E-02       2   13    1         0.2585052645E+00      0.7642303857E+00
          0                 2           2             2   13     1      -0.2618816693E-02       2   13    1        -0.1523941244E+00      0.2735760602E+00
          0                 3           2             4   13     1      -0.3946613911E-03       4   13    1        -0.2443837392E-01      0.2762219092E-01
          0                 4           1             4   13     1      -0.1169835181E-03       4   13    1        -0.7211917344E-02      0.1076852579E-01
          0                 5           1             4   13     1      -0.3817692861E-04       4   13    1        -0.2355153531E-02      0.3343310542E-02

    ------------------------------------------------
       NWT REQUIRED            5 OUTER ITERATIONS 
       AND A TOTAL OF          8 INNER ITERATIONS.
    ------------------------------------------------

 NO OUTPUT CONTROL FOR STRESS PERIOD   30   TIME STEP   26
 
 SOLVING FOR HEAD 
                                                   Max.-Head-Change                         Max.-Flux-Residual
  Residual-Control   Outer-Iter.   Inner-Iter.     Column Row Layer    Maximum-Head-Change  Column Row Layer    Maximum-Flux-Residual          L2-NORM 
          0                 1           2             1    1     1       0.4663602980E-02       2   13    1         0.2500051849E+00      0.7549386455E+00
          0                 2           2             2   13     1      -0.2602266777E-02       2   13    1        -0.1514657702E+00      0.2701751845E+00
          0                 3           2             4   13     1      -0.3952230070E-03       4   13    1        -0.2442635156E-01      0.2957188620E-01
          0                 4           1             4   13     1      -0.1169291457E-03       4   13    1        -0.7211839942E-02      0.1061309608E-01
          0                 5           1             4   13     1      -0.3811794706E-04       4   13    1        -0.2351292678E-02      0.3348520587E-02

    ------------------------------------------------
       NWT REQUIRED            5 OUTER ITERATIONS 
       AND A TOTAL OF          8 INNER ITERATIONS.
    ------------------------------------------------

 NO OUTPUT CONTROL FOR STRESS PERIOD   30   TIME STEP   27
 
 SOLVING FOR HEAD 
                                                   Max.-Head-Change                         Max.-Flux-Residual
  Residual-Control   Outer-Iter.   Inner-Iter.     Column Row Layer    Maximum-Head-Change  Column Row Layer    Maximum-Flux-Residual          L2-NORM 
          0                 1           2             1    1     1       0.4658330166E-02       2   13    1         0.2422009257E+00      0.7464093159E+00
          0                 2           2             2   13     1      -0.2587075251E-02       2   13    1        -0.1506133533E+00      0.2671143668E+00
          0                 3           2             4   13     1      -0.3957966620E-03       4   13    1        -0.2441934483E-01      0.3190931168E-01
          0                 4           1             4   13     1      -0.1168922854E-03       4   13    1        -0.7212537626E-02      0.1048341186E-01
          0                 5           1             4   13     1      -0.3809131009E-04       4   13    1        -0.2349452183E-02      0.3353564422E-02

    ------------------------------------------------
       NWT REQUIRED            5 OUTER ITERATIONS 
       AND A TOTAL OF          8 INNER ITERATIONS.
    ------------------------------------------------

 NO OUTPUT CONTROL FOR STRESS PERIOD   30   TIME STEP   28
 
 SOLVING FOR HEAD 
                                                   Max.-Head-Change                         Max.-Flux-Residual
  Residual-Control   Outer-Iter.   Inner-Iter.     Column Row Layer    Maximum-Head-Change  Column Row Layer    Maximum-Flux-Residual          L2-NORM 
          0                 1           2             1    1     1       0.4653053434E-02       1    1    1         0.2415717478E+00      0.7385664121E+00
          0                 2           2             2   13     1      -0.2573001614E-02       2   13    1        -0.1498230765E+00      0.2643511433E+00
          0                 3           2             4   13     1      -0.3962972911E-03       4   13    1        -0.2441593588E-01      0.3411769922E-01
          0                 4           1             4   13     1      -0.1169556100E-03       4   13    1        -0.7214620708E-02      0.1056499728E-01
          0                 5           1             4   13     1      -0.3807764618E-04       4   13    1        -0.2348754479E-02      0.3345221505E-02

    ------------------------------------------------
       NWT REQUIRED            5 OUTER ITERATIONS 
       AND A TOTAL OF          8 INNER ITERATIONS.
    ------------------------------------------------

 NO OUTPUT CONTROL FOR STRESS PERIOD   30   TIME STEP   29
 
 SOLVING FOR HEAD 
                                                   Max.-Head-Change                         Max.-Flux-Residual
  Residual-Control   Outer-Iter.   Inner-Iter.     Column Row Layer    Maximum-Head-Change  Column Row Layer    Maximum-Flux-Residual          L2-NORM 
          0                 1           2             1    1     1       0.4647818741E-02       1    1    1         0.2412993533E+00      0.7313337096E+00
          0                 2           2             2   13     1      -0.2560049850E-02       2   13    1        -0.1490956387E+00      0.2618469275E+00
          0                 3           2             4   13     1      -0.3962712171E-03       4   13    1        -0.2441547420E-01      0.3403614612E-01
          0                 4           1             4   13     1      -0.1172405267E-03       4   13    1        -0.7214002428E-02      0.1151039592E-01
          0                 5           1             4   13     1      -0.3818282734E-04       4   13    1        -0.2349994407E-02      0.3638984541E-02

    ------------------------------------------------
       NWT REQUIRED            5 OUTER ITERATIONS 
       AND A TOTAL OF          8 INNER ITERATIONS.
    ------------------------------------------------

 NO OUTPUT CONTROL FOR STRESS PERIOD   30   TIME STEP   30



 STREAM LISTING     PERIOD     30   STEP       30

 LAYER ROW COL. STREAM  RCH.  FLOW INTO     FLOW TO   FLOW OUT OF   OVRLND.     DIRECT     STREAM       STREAM     STREAM     STREAM   STREAMBED  STREAMBED
                SEG.NO.  NO.  STRM. RCH.    AQUIFER    STRM. RCH.    RUNOFF     PRECIP       ET          HEAD       DEPTH      WIDTH   CONDCTNC.   GRADIENT

   1    1    1     1     1    7.4248E+01  4.1988E-01   7.3828E+01  0.000E+00  0.000E+00  0.000E+00  1.09474E+03  1.690E+00  1.990E+01  8.954E-02  1.563E+00
   1    2    2     1     2    7.3828E+01  6.5043E-01   7.3177E+01  0.000E+00  0.000E+00  0.000E+00  1.08974E+03  1.684E+00  1.984E+01  1.389E-01  1.561E+00
   1    3    3     1     3    7.3177E+01  5.5489E-01   7.2623E+01  0.000E+00  0.000E+00  0.000E+00  1.08410E+03  1.677E+00  1.977E+01  1.186E-01  1.559E+00
   1    3    4     1     4    7.2623E+01  5.1112E-01   7.2111E+01  0.000E+00  0.000E+00  0.000E+00  1.07908E+03  1.671E+00  1.972E+01  1.094E-01  1.557E+00
   1    4    5     2     1    7.0111E+01  4.0856E-01   6.9703E+01  0.000E+00  0.000E+00  0.000E+00  1.07417E+03  2.238E+00  1.200E+01  7.800E-02  1.746E+00
   1    5    6     2     2    6.9703E+01  3.1386E-01   6.9389E+01  0.000E+00  0.000E+00  0.000E+00  1.06874E+03  2.231E+00  1.200E+01  6.000E-02  1.744E+00
   1    6    6     2     3    6.9389E+01  3.1350E-01   6.9075E+01  0.000E+00  0.000E+00  0.000E+00  1.06402E+03  2.225E+00  1.200E+01  6.000E-02  1.742E+00
   1    7    6     2     4    6.9075E+01  3.1314E-01   6.8762E+01  0.000E+00  0.000E+00  0.000E+00  1.05929E+03  2.219E+00  1.200E+01  6.000E-02  1.740E+00
   1    8    6     2     5    6.8762E+01  3.1277E-01   6.8450E+01  0.000E+00  0.000E+00  0.000E+00  1.05457E+03  2.213E+00  1.200E+01  6.000E-02  1.738E+00
   1    3    5     3     1    2.0000E+00  2.8252E-01   1.7175E+00  0.000E+00  0.000E+00  0.000E+00  1.07555E+03  1.909E+00  9.636E+00  7.227E-02  1.955E+00
   1    3    6     3     2    1.7175E+00  2.4905E-01   1.4684E+00  0.000E+00  0.000E+00  0.000E+00  1.07264E+03  1.727E+00  8.909E+00  6.682E-02  1.864E+00
   1    3    7     3     3    1.4684E+00  1.9718E-01   1.2712E+00  0.000E+00  0.000E+00  0.000E+00  1.06987E+03  1.555E+00  8.218E+00  5.547E-02  1.777E+00
   1    4    8     3     4    1.2712E+00  2.2567E-01   1.0456E+00  0.000E+00  0.000E+00  0.000E+00  1.06682E+03  1.364E+00  7.455E+00  6.709E-02  1.682E+00
   1    5    8     3     5    1.0456E+00  1.5790E-01   8.8768E-01  0.000E+00  0.000E+00  0.000E+00  1.06362E+03  1.164E+00  6.655E+00  4.991E-02  1.582E+00
   1    6    8     3     6    8.8768E-01  5.5980E-02   8.3170E-01  0.000E+00  0.000E+00  0.000E+00  1.06158E+03  1.036E+00  6.145E+00  1.844E-02  1.518E+00
   1    5   10     4     1    1.0000E+01  9.0919E-02   9.9091E+00  0.000E+00  0.000E+00  0.000E+00  1.07836E+03  6.368E-01  1.000E+01  2.500E-02  1.212E+00
   1    5    9     4     2    9.9091E+00  1.8158E-01   9.7275E+00  0.000E+00  0.000E+00  0.000E+00  1.07154E+03  6.315E-01  1.000E+01  5.000E-02  1.211E+00
   1    6    8     4     3    9.7275E+00  1.2689E-01   9.6006E+00  0.000E+00  0.000E+00  0.000E+00  1.06381E+03  6.256E-01  1.000E+01  3.500E-02  1.209E+00
   1    6    8     5     1    1.0432E+01  2.2686E-01   1.0205E+01  0.000E+00  0.000E+00  0.000E+00  1.05868E+03  6.790E-01  1.542E+01  6.166E-02  1.226E+00
   1    7    7     5     2    1.0205E+01  2.7894E-01   9.9265E+00  0.000E+00  0.000E+00  0.000E+00  1.05417E+03  6.732E-01  1.519E+01  7.594E-02  1.224E+00
   1    8    7     5     3    9.9265E+00  1.9221E-01   9.7343E+00  0.000E+00  0.000E+00  0.000E+00  1.04992E+03  6.676E-01  1.497E+01  5.241E-02  1.223E+00
   1    8    6     5     4    9.7343E+00  1.3577E-01   9.5985E+00  0.000E+00  0.000E+00  0.000E+00  1.04691E+03  6.637E-01  1.482E+01  3.706E-02  1.221E+00
   1    9    6     6     1    7.0768E+01  3.1665E-01   7.0452E+01  0.000E+00  0.000E+00  0.000E+00  1.04500E+03  2.277E+00  1.200E+01  6.000E-02  1.759E+00
   1   10    7     6     2    7.0452E+01  3.1628E-01   7.0135E+01  0.000E+00  0.000E+00  0.000E+00  1.04045E+03  2.271E+00  1.200E+01  6.000E-02  1.757E+00
   1   11    7     6     3    7.0135E+01  3.1591E-01   6.9820E+01  0.000E+00  0.000E+00  0.000E+00  1.03590E+03  2.265E+00  1.200E+01  6.000E-02  1.755E+00
   1   12    7     6     4    6.9820E+01  3.1555E-01   6.9504E+01  0.000E+00  0.000E+00  0.000E+00  1.03135E+03  2.259E+00  1.200E+01  6.000E-02  1.753E+00
   1   13    7     6     5    6.9504E+01  2.5390E-02   6.9479E+01  0.000E+00  0.000E+00  0.000E+00  1.02816E+03  2.256E+00  1.200E+01  2.400E-02  3.526E-01
   1   14    9     7     1    1.5000E+02  1.3387E+00   1.4866E+02  0.000E+00  0.000E+00  0.000E+00  1.03987E+03  2.288E+00  5.529E+01  5.593E-01  7.979E-01
   1   13    8     7     2    1.4866E+02  1.8322E+00   1.4683E+02  0.000E+00  0.000E+00  0.000E+00  1.03478E+03  2.279E+00  5.526E+01  6.148E-01  9.934E-01
   1   13    7     7     3    1.4683E+02  1.4425E+00   1.4539E+02  0.000E+00  0.000E+00  0.000E+00  1.02969E+03  2.271E+00  5.522E+01  5.585E-01  8.610E-01
   1   13    6     8     1    2.1487E+02  1.0763E+00   2.1379E+02  0.000E+00  0.000E+00  0.000E+00  1.02510E+03  3.220E+00  4.670E+01  4.759E-01  7.540E-01
   1   13    5     8     2    2.1379E+02  2.5790E-01   2.1353E+02  0.000E+00  0.000E+00  0.000E+00  1.01884E+03  3.217E+00  4.664E+01  4.753E-01  1.809E-01
   1   13    4     8     3    2.1353E+02 -2.1926E+00   2.1572E+02  0.000E+00  0.000E+00  0.000E+00  1.01260E+03  3.222E+00  4.672E+01  4.761E+00 -1.535E-01
   1   13    3     8     4    2.1572E+02 -3.4199E+00   2.1914E+02  0.000E+00  0.000E+00  0.000E+00  1.00636E+03  3.238E+00  4.695E+01  4.784E+00 -2.383E-01
   1   13    2     8     5    2.1914E+02 -2.4482E+00   2.2159E+02  0.000E+00  0.000E+00  0.000E+00  1.00013E+03  3.254E+00  4.719E+01  4.808E+00 -1.697E-01
   1   13    1     8     6    2.2159E+02 -1.8685E+00   2.2346E+02  0.000E+00  0.000E+00  0.000E+00  9.95141E+02  3.266E+00  4.736E+01  2.896E+00 -2.151E-01
   1    8    6     9     1    7.2797E+00  0.0000E+00   7.2797E+00  0.000E+00  0.000E+00  0.000E+00  1.08062E+03  1.866E+00  4.000E+00  0.000E+00  1.622E+00
   1    8    5     9     2    7.2797E+00  0.0000E+00   7.2797E+00  0.000E+00  0.000E+00  0.000E+00  1.08012E+03  1.866E+00  4.000E+00  0.000E+00  1.622E+00





UNSATURATED ZONE PACKAGE VOLUMETRIC BUDGET FOR  TIME STEP    30 STRESS PERIOD   30
  ------------------------------------------------------------------------------



     CUMULATIVE VOLUMES      L**3       RATES FOR THIS TIME STEP      L**3/T
     ------------------                 ------------------------

           IN:                                      IN:
           ---                                      ---
        INFILTRATION =  1153910854.2615          INFILTRATION =          11.6873

          OUT:                                     OUT:
          ----                                     ----
              UZF ET =  1058984968.4299                UZF ET =          11.5849
        UZF RECHARGE =     1188922.5148          UZF RECHARGE =           0.0045

            IN - OUT =    93736963.3167              IN - OUT =       9.7900E-02

          STORAGE:                                 STORAGE:
          --------                                 --------
      STORAGE CHANGE =    93737939.5100        STORAGE CHANGE =       9.7900E-02

 PERCENT DISCREPANCY IS DIFFERENCE BETWEEN IN-OUT MINUS CHANGE IN STORAGE
 DIVIDED BY THE AVERAGE OF IN AND OUT TIMES 100

 PERCENT DISCREPANCY =          -0.00     PERCENT DISCREPANCY =           0.00






1
  VOLUMETRIC BUDGET FOR AGRICULTURAL FIELDS AT TIME STEP   30, STRESS PERIOD  30
  ------------------------------------------------------------------------------

     CUMULATIVE VOLUMES      L**3       RATES FOR THIS TIME STEP      L**3/T
     ------------------                 ------------------------

           IN:                                      IN:
           ---                                      ---
               AG WELLS  =   175546176.0000                 AG WELLS  =           0.0000
      DIVERSION SEGMENTS =   642119040.0000        DIVERSION SEGMENTS =           7.2797
           GW IRRIGATION =           0.0000             GW IRRIGATION =           0.0000
           SW IRRIGATION =           0.0000             SW IRRIGATION =           0.0000
        SYSTEM LOSSES GW =           0.0000          SYSTEM LOSSES GW =           0.0000
        SYSTEM LOSSES SW =           0.0000          SYSTEM LOSSES SW =           0.0000

                TOTAL IN =   817665216.0000                  TOTAL IN =           7.2797

          OUT:                                     OUT:
          ----                                     ----
               AG WELLS  =           0.0000                 AG WELLS  =           0.0000
      DIVERSION SEGMENTS =           0.0000        DIVERSION SEGMENTS =           0.0000
           GW IRRIGATION =   175546176.0000             GW IRRIGATION =           0.0000
           SW IRRIGATION =   642132672.0000             SW IRRIGATION =           7.2798
        SYSTEM LOSSES GW =           0.0000          SYSTEM LOSSES GW =           0.0000
        SYSTEM LOSSES SW =           0.0000          SYSTEM LOSSES SW =           0.0000

               TOTAL OUT =   817678848.0000                 TOTAL OUT =           7.2798

                IN - OUT =      -13632.0000                  IN - OUT =      -1.4544E-04

     PERCENT DISCREPANCY =          -0.00         PERCENT DISCREPANCY =          -0.00



1
  VOLUMETRIC BUDGET FOR ENTIRE MODEL AT END OF TIME STEP   30, STRESS PERIOD  30
  ------------------------------------------------------------------------------

     CUMULATIVE VOLUMES      L**3       RATES FOR THIS TIME STEP      L**3/T
     ------------------                 ------------------------

           IN:                                      IN:
           ---                                      ---
             STORAGE     =   306135296.0000               STORAGE     =           0.6145
       CONSTANT HEAD     =           0.0000         CONSTANT HEAD     =           0.0000
     HEAD DEP BOUNDS     =    21821512.0000       HEAD DEP BOUNDS     =           0.2860
      STREAM LEAKAGE     =   909513920.0000        STREAM LEAKAGE     =          13.4370
        UZF RECHARGE     =     1188922.5000          UZF RECHARGE     =       4.5180E-03
               GW ET     =           0.0000                 GW ET     =           0.0000
     SURFACE LEAKAGE     =           0.0000       SURFACE LEAKAGE     =           0.0000
           AG WELLS      =           0.0000             AG WELLS      =           0.0000

                TOTAL IN =  1238659584.0000                  TOTAL IN =          14.3420

          OUT:                                     OUT:
          ----                                     ----
             STORAGE     =   213524384.0000               STORAGE     =           3.7931
       CONSTANT HEAD     =           0.0000         CONSTANT HEAD     =           0.0000
     HEAD DEP BOUNDS     =    22202668.0000       HEAD DEP BOUNDS     =           0.2959
      STREAM LEAKAGE     =   824546048.0000        STREAM LEAKAGE     =           9.9292
        UZF RECHARGE     =           0.0000          UZF RECHARGE     =           0.0000
               GW ET     =     2806984.7500                 GW ET     =           0.3238
     SURFACE LEAKAGE     =           0.0000       SURFACE LEAKAGE     =           0.0000
           AG WELLS      =   175546176.0000             AG WELLS      =           0.0000

               TOTAL OUT =  1238626304.0000                 TOTAL OUT =          14.3419

                IN - OUT =       33280.0000                  IN - OUT =       4.8637E-05

     PERCENT DISCREPANCY =           0.00         PERCENT DISCREPANCY =           0.00






         TIME SUMMARY AT END OF TIME STEP   30 IN STRESS PERIOD   30
                    SECONDS     MINUTES      HOURS       DAYS        YEARS
                    -----------------------------------------------------------
   TIME STEP LENGTH  87667.      1461.1      24.352      1.0147     2.77799E-03
 STRESS PERIOD TIME 2.63000E+06  43833.      730.56      30.440     8.33397E-02
         TOTAL TIME 7.63565E+07 1.27261E+06  21210.      883.76      2.4196    
1
1
                            STRESS PERIOD NO.   31, LENGTH =   2630000.    
                            -----------------------------------------------

                              NUMBER OF TIME STEPS =    30

                               MULTIPLIER FOR DELT =     1.000

                            INITIAL TIME STEP SIZE =   87666.66    

 REUSING NON-PARAMETER GHB CELLS FROM LAST STRESS PERIOD

      2 GHB CELLS

 REUSING STREAM SEGMENT DATA FROM LAST STRESS PERIOD



            AREAL INFILTRATION RATE
 READING ON UNIT   19 WITH FORMAT: (10F4.0)            

            1           2           3           4           5           6           7           8           9          10
 ........................................................................................................................
   1   1.2000E-09   0.000       0.000       0.000       0.000       0.000       0.000       0.000       0.000       0.000    
   2   2.1000E-09  2.0000E-09  8.0000E-10  8.5000E-09   0.000       0.000       0.000       0.000       0.000       0.000    
   3   5.0000E-10  1.1000E-09  8.8000E-09  5.5000E-09   0.000       0.000       0.000       0.000       0.000       0.000    
   4   8.5000E-09  1.1000E-09  1.1000E-09  1.1000E-09  2.0000E-09   0.000       0.000       0.000       0.000       0.000    
   5   8.5000E-09  1.1000E-09  1.1000E-09  1.1000E-09  1.1000E-09   0.000       0.000       0.000       0.000       0.000    
   6   8.5000E-09  5.2000E-09  2.1000E-09  1.1000E-09  1.5000E-09   0.000       0.000       0.000       0.000       0.000    
   7   8.5000E-09  5.2000E-09  2.1000E-09  1.2000E-09  2.0000E-09   0.000       0.000       0.000       0.000       0.000    
   8   5.0000E-10  5.2000E-09  2.1000E-09  1.2000E-09  5.0000E-09   0.000       0.000       0.000       0.000       0.000    
   9   5.0000E-10  5.2000E-09  2.1000E-09  1.2000E-09  5.0000E-09   0.000       0.000       0.000       0.000       0.000    
  10   5.0000E-10  5.2000E-09  2.1000E-09  1.2000E-09  5.8000E-09   0.000       0.000       0.000       0.000       0.000    
  11   1.0000E-10  1.1000E-09  1.1000E-09  1.2000E-09  5.0000E-09   0.000       0.000       0.000       0.000       0.000    
  12   1.1000E-09  1.1000E-09  1.1000E-09  1.1000E-09  2.0000E-09   0.000       0.000       0.000       0.000       0.000    
  13   1.1000E-09  2.2000E-09  2.2000E-09  2.1000E-09  1.0000E-09   0.000       0.000       0.000       0.000       0.000    
  14   2.0000E-10  5.5000E-09  5.5000E-09  5.2000E-09  1.0000E-09   0.000       0.000       0.000       0.000       0.000    
  15    0.000      8.8000E-09  8.8000E-09   0.000       0.000       0.000       0.000       0.000       0.000       0.000    

                  ET RATE =  1.500000E-07

 USING ET EXTINCTION DEPTH FROM PREVIOUS STRESS PERIOD. CURRENT PERIOD IS:      31

 USING EXTINCTION WATER CONTENT FROM PREVIOUS STRESS PERIOD. CURRENT PERIOD IS:      31

 USING AIR ENTRY PRESSURE FROM PREVIOUS STRESS PERIOD. CURRENT PERIOD IS:      31

 USING ROOT PRESSURE HEAD FROM PREVIOUS STRESS PERIOD. CURRENT PERIOD IS:      31

 USING ROOT ACTIVITY FROM PREVIOUS STRESS PERIOD. CURRENT PERIOD IS:      31

 PROCESSING AG STRESS PERIOD DATA

 READING AG STRESS PERIOD DATA

 READING IRRIGATION SEGMENT

 READING IRRIGATION WELL

 READING SUPPLEMENTAL WELL

 END PROCESSING AG STRESS PERIOD DATA OPTIONS
 
 SOLVING FOR HEAD 
                                                   Max.-Head-Change                         Max.-Flux-Residual
  Residual-Control   Outer-Iter.   Inner-Iter.     Column Row Layer    Maximum-Head-Change  Column Row Layer    Maximum-Flux-Residual          L2-NORM 
          0                 1           2             3   13     1      -0.5183763589E-02       3   13    1        -0.3343612879E+00      0.7174750812E+00
          0                 2           2             2   13     1      -0.6814527128E-02       2   13    1        -0.3961184971E+00      0.6996382665E+00
          0                 3           2             4   13     1       0.4912283526E-03       4   13    1         0.3246625495E-01      0.4900861103E-01
          0                 4           1             4   13     1      -0.7280587810E-04       4   13    1        -0.4946241990E-02      0.7558693072E-02

    ------------------------------------------------
       NWT REQUIRED            4 OUTER ITERATIONS 
       AND A TOTAL OF          7 INNER ITERATIONS.
    ------------------------------------------------

 NO OUTPUT CONTROL FOR STRESS PERIOD   31   TIME STEP    1
 
 SOLVING FOR HEAD 
                                                   Max.-Head-Change                         Max.-Flux-Residual
  Residual-Control   Outer-Iter.   Inner-Iter.     Column Row Layer    Maximum-Head-Change  Column Row Layer    Maximum-Flux-Residual          L2-NORM 
          0                 1           2             3   13     1      -0.4949372160E-02       3   13    1        -0.3180537582E+00      0.6612649421E+00
          0                 2           2             2   13     1      -0.6810027205E-02       4   13    1        -0.3876219316E+00      0.6889407233E+00
          0                 3           2             1   13     1      -0.2100923410E-03       1   13    1        -0.1178269635E-01      0.2352383905E-01
          0                 4           2             2   13     1      -0.2521690880E-03       4   13    1        -0.1506771999E-01      0.2604556532E-01
          0                 5           1             2   13     1      -0.6299672404E-04       4   13    1        -0.3768322116E-02      0.6673486687E-02

    ------------------------------------------------
       NWT REQUIRED            5 OUTER ITERATIONS 
       AND A TOTAL OF          9 INNER ITERATIONS.
    ------------------------------------------------

 NO OUTPUT CONTROL FOR STRESS PERIOD   31   TIME STEP    2
 
 SOLVING FOR HEAD 
                                                   Max.-Head-Change                         Max.-Flux-Residual
  Residual-Control   Outer-Iter.   Inner-Iter.     Column Row Layer    Maximum-Head-Change  Column Row Layer    Maximum-Flux-Residual          L2-NORM 
          0                 1           2             1    1     1       0.3862169689E-02       1    1    1         0.2004868849E+00      0.5661269857E+00
          0                 2           2             2   13     1      -0.6692228176E-02       4   13    1        -0.4027711893E+00      0.7069854628E+00
          0                 3           2             2   13     1      -0.4285118260E-03       2   13    1        -0.2493932672E-01      0.3546026750E-01
          0                 4           2             2   13     1      -0.2503130349E-03       4   13    1        -0.1593029458E-01      0.2726249404E-01
          0                 5           1             2   13     1      -0.7600693432E-04       2   13    1        -0.4413252668E-02      0.7624919506E-02

    ------------------------------------------------
       NWT REQUIRED            5 OUTER ITERATIONS 
       AND A TOTAL OF          9 INNER ITERATIONS.
    ------------------------------------------------

 NO OUTPUT CONTROL FOR STRESS PERIOD   31   TIME STEP    3
 
 SOLVING FOR HEAD 
                                                   Max.-Head-Change                         Max.-Flux-Residual
  Residual-Control   Outer-Iter.   Inner-Iter.     Column Row Layer    Maximum-Head-Change  Column Row Layer    Maximum-Flux-Residual          L2-NORM 
          0                 1           2             1    1     1       0.3858297744E-02       1    1    1         0.2002854436E+00      0.5334229147E+00
          0                 2           2             2   13     1      -0.6756196949E-02       4   13    1        -0.4150192269E+00      0.7220975035E+00
          0                 3           2             2   13     1      -0.4363540020E-03       4   13    1        -0.2625566918E-01      0.4199333974E-01
          0                 4           2             2   13     1      -0.2549298306E-03       4   13    1        -0.1582879441E-01      0.2757447742E-01
          0                 5           1             2   13     1      -0.7761711383E-04       4   13    1        -0.4774449744E-02      0.8083778744E-02

    ------------------------------------------------
       NWT REQUIRED            5 OUTER ITERATIONS 
       AND A TOTAL OF          9 INNER ITERATIONS.
    ------------------------------------------------

 NO OUTPUT CONTROL FOR STRESS PERIOD   31   TIME STEP    4
 
 SOLVING FOR HEAD 
                                                   Max.-Head-Change                         Max.-Flux-Residual
  Residual-Control   Outer-Iter.   Inner-Iter.     Column Row Layer    Maximum-Head-Change  Column Row Layer    Maximum-Flux-Residual          L2-NORM 
          0                 1           2             1    1     1       0.3854438961E-02       1    1    1         0.2000846896E+00      0.5437916076E+00
          0                 2           2             2   13     1      -0.6816876868E-02       4   13    1        -0.4249108364E+00      0.7347620035E+00
          0                 3           2             2   13     1      -0.4341053935E-03       4   13    1        -0.2557576798E-01      0.4579595255E-01
          0                 4           2             2   13     1      -0.2585146368E-03       4   13    1        -0.1607073164E-01      0.2779384404E-01
          0                 5           1             2   13     1      -0.7847295971E-04       4   13    1        -0.4822972938E-02      0.8394322605E-02

    ------------------------------------------------
       NWT REQUIRED            5 OUTER ITERATIONS 
       AND A TOTAL OF          9 INNER ITERATIONS.
    ------------------------------------------------

 NO OUTPUT CONTROL FOR STRESS PERIOD   31   TIME STEP    5
 
 SOLVING FOR HEAD 
                                                   Max.-Head-Change                         Max.-Flux-Residual
  Residual-Control   Outer-Iter.   Inner-Iter.     Column Row Layer    Maximum-Head-Change  Column Row Layer    Maximum-Flux-Residual          L2-NORM 
          0                 1           2             1    1     1       0.3850570274E-02       1    1    1         0.1998834220E+00      0.5764466271E+00
          0                 2           2             2   13     1      -0.6874269561E-02       4   13    1        -0.4329010171E+00      0.7453921986E+00
          0                 3           2             2   13     1      -0.4312546113E-03       4   13    1        -0.2504887324E-01      0.4513836488E-01
          0                 4           2             2   13     1      -0.2619710630E-03       4   13    1        -0.1630708346E-01      0.2818488134E-01
          0                 5           1             2   13     1      -0.7940351640E-04       4   13    1        -0.4876318471E-02      0.8488800447E-02

    ------------------------------------------------
       NWT REQUIRED            5 OUTER ITERATIONS 
       AND A TOTAL OF          9 INNER ITERATIONS.
    ------------------------------------------------

 NO OUTPUT CONTROL FOR STRESS PERIOD   31   TIME STEP    6
 
 SOLVING FOR HEAD 
                                                   Max.-Head-Change                         Max.-Flux-Residual
  Residual-Control   Outer-Iter.   Inner-Iter.     Column Row Layer    Maximum-Head-Change  Column Row Layer    Maximum-Flux-Residual          L2-NORM 
          0                 1           2             1    1     1       0.3846737709E-02       4   13    1         0.2411305609E+00      0.6171958321E+00
          0                 2           2             2   13     1      -0.6928264141E-02       4   13    1        -0.4393546642E+00      0.7543241186E+00
          0                 3           2             2   13     1      -0.4277761887E-03       2   13    1        -0.2482766420E-01      0.4450279845E-01
          0                 4           2             2   13     1      -0.2655730780E-03       4   13    1        -0.1654146021E-01      0.2858059186E-01
          0                 5           1             2   13     1      -0.8030814812E-04       4   13    1        -0.4928310180E-02      0.8581987518E-02

    ------------------------------------------------
       NWT REQUIRED            5 OUTER ITERATIONS 
       AND A TOTAL OF          9 INNER ITERATIONS.
    ------------------------------------------------

 NO OUTPUT CONTROL FOR STRESS PERIOD   31   TIME STEP    7
 
 SOLVING FOR HEAD 
                                                   Max.-Head-Change                         Max.-Flux-Residual
  Residual-Control   Outer-Iter.   Inner-Iter.     Column Row Layer    Maximum-Head-Change  Column Row Layer    Maximum-Flux-Residual          L2-NORM 
          0                 1           2             4   13     1       0.4498106050E-02       4   13    1         0.2898506647E+00      0.6585717386E+00
          0                 2           2             2   13     1      -0.6978898921E-02       4   13    1        -0.4445678484E+00      0.7618471479E+00
          0                 3           2             2   13     1      -0.4270542342E-03       2   13    1        -0.2478686743E-01      0.4423152775E-01
          0                 4           2             2   13     1      -0.2668965702E-03       4   13    1        -0.1662720657E-01      0.2872464051E-01
          0                 5           1             2   13     1      -0.8068571340E-04       4   13    1        -0.4947783851E-02      0.8617669342E-02

    ------------------------------------------------
       NWT REQUIRED            5 OUTER ITERATIONS 
       AND A TOTAL OF          9 INNER ITERATIONS.
    ------------------------------------------------

 NO OUTPUT CONTROL FOR STRESS PERIOD   31   TIME STEP    8
 
 SOLVING FOR HEAD 
                                                   Max.-Head-Change                         Max.-Flux-Residual
  Residual-Control   Outer-Iter.   Inner-Iter.     Column Row Layer    Maximum-Head-Change  Column Row Layer    Maximum-Flux-Residual          L2-NORM 
          0                 1           2             4   13     1       0.5110122553E-02       4   13    1         0.3292685568E+00      0.6971902470E+00
          0                 2           2             2   13     1      -0.7026133653E-02       4   13    1        -0.4487757196E+00      0.7681951689E+00
          0                 3           2             2   13     1      -0.4264848406E-03       2   13    1        -0.2475459747E-01      0.4403020108E-01
          0                 4           2             2   13     1      -0.2677901766E-03       4   13    1        -0.1667910239E-01      0.2881556185E-01
          0                 5           1             2   13     1      -0.8093107139E-04       4   13    1        -0.4959172018E-02      0.8639684772E-02

    ------------------------------------------------
       NWT REQUIRED            5 OUTER ITERATIONS 
       AND A TOTAL OF          9 INNER ITERATIONS.
    ------------------------------------------------

 NO OUTPUT CONTROL FOR STRESS PERIOD   31   TIME STEP    9
 
 SOLVING FOR HEAD 
                                                   Max.-Head-Change                         Max.-Flux-Residual
  Residual-Control   Outer-Iter.   Inner-Iter.     Column Row Layer    Maximum-Head-Change  Column Row Layer    Maximum-Flux-Residual          L2-NORM 
          0                 1           2             4   13     1       0.5605541598E-02       4   13    1         0.3611678644E+00      0.7318242511E+00
          0                 2           2             2   13     1      -0.7070124845E-02       4   13    1        -0.4521724931E+00      0.7735693785E+00
          0                 3           2             2   13     1      -0.4255451174E-03       2   13    1        -0.2470056999E-01      0.4383279872E-01
          0                 4           2             2   13     1      -0.2684975321E-03       4   13    1        -0.1671717031E-01      0.2888331245E-01
          0                 5           1             2   13     1      -0.8107968587E-04       4   13    1        -0.4973687697E-02      0.8656694833E-02

    ------------------------------------------------
       NWT REQUIRED            5 OUTER ITERATIONS 
       AND A TOTAL OF          9 INNER ITERATIONS.
    ------------------------------------------------

 NO OUTPUT CONTROL FOR STRESS PERIOD   31   TIME STEP   10
 
 SOLVING FOR HEAD 
                                                   Max.-Head-Change                         Max.-Flux-Residual
  Residual-Control   Outer-Iter.   Inner-Iter.     Column Row Layer    Maximum-Head-Change  Column Row Layer    Maximum-Flux-Residual          L2-NORM 
          0                 1           2             4   13     1       0.6006623252E-02       4   13    1         0.3869848447E+00      0.7622297403E+00
          0                 2           2             2   13     1      -0.7110976742E-02       4   13    1        -0.4549146327E+00      0.7781340029E+00
          0                 3           2             2   13     1      -0.4247019437E-03       2   13    1        -0.2465196572E-01      0.4367637612E-01
          0                 4           2             2   13     1      -0.2691415093E-03       4   13    1        -0.1674882124E-01      0.2894276635E-01
          0                 5           1             2   13     1      -0.8124063939E-04       4   13    1        -0.4967622230E-02      0.8662747806E-02

    ------------------------------------------------
       NWT REQUIRED            5 OUTER ITERATIONS 
       AND A TOTAL OF          9 INNER ITERATIONS.
    ------------------------------------------------

 NO OUTPUT CONTROL FOR STRESS PERIOD   31   TIME STEP   11
 
 SOLVING FOR HEAD 
                                                   Max.-Head-Change                         Max.-Flux-Residual
  Residual-Control   Outer-Iter.   Inner-Iter.     Column Row Layer    Maximum-Head-Change  Column Row Layer    Maximum-Flux-Residual          L2-NORM 
          0                 1           2             4   13     1       0.6331461587E-02       4   13    1         0.4078867144E+00      0.7886455415E+00
          0                 2           2             2   13     1      -0.7148814133E-02       4   13    1        -0.4571269401E+00      0.7820247774E+00
          0                 3           2             2   13     1      -0.4239397358E-03       2   13    1        -0.2460793502E-01      0.4355054907E-01
          0                 4           2             4   13     1      -0.3225468697E-03       4   13    1        -0.1909241987E-01      0.3039537634E-01
          0                 5           1             2   13     1      -0.8151788274E-04       4   13    1        -0.4817365894E-02      0.8594201602E-02

    ------------------------------------------------
       NWT REQUIRED            5 OUTER ITERATIONS 
       AND A TOTAL OF          9 INNER ITERATIONS.
    ------------------------------------------------

 NO OUTPUT CONTROL FOR STRESS PERIOD   31   TIME STEP   12
 
 SOLVING FOR HEAD 
                                                   Max.-Head-Change                         Max.-Flux-Residual
  Residual-Control   Outer-Iter.   Inner-Iter.     Column Row Layer    Maximum-Head-Change  Column Row Layer    Maximum-Flux-Residual          L2-NORM 
          0                 1           2             4   13     1       0.7282901818E-02       4   13    1         0.4205623629E+00      0.8092408037E+00
          0                 2           2             4   13     1      -0.7673020233E-02       4   13    1        -0.5069054771E+00      0.8142517327E+00
          0                 3           2             4   13     1      -0.4828457619E-03       4   13    1        -0.2858825701E-01      0.4637646980E-01
          0                 4           2             4   13     1      -0.2785672157E-03       4   13    1        -0.1646691065E-01      0.2886154587E-01
          0                 5           1             4   13     1      -0.8465296349E-04       4   13    1        -0.5004752597E-02      0.8702350124E-02

    ------------------------------------------------
       NWT REQUIRED            5 OUTER ITERATIONS 
       AND A TOTAL OF          9 INNER ITERATIONS.
    ------------------------------------------------

 NO OUTPUT CONTROL FOR STRESS PERIOD   31   TIME STEP   13
 
 SOLVING FOR HEAD 
                                                   Max.-Head-Change                         Max.-Flux-Residual
  Residual-Control   Outer-Iter.   Inner-Iter.     Column Row Layer    Maximum-Head-Change  Column Row Layer    Maximum-Flux-Residual          L2-NORM 
          0                 1           2             4   13     1       0.7409878949E-02       4   13    1         0.4278188839E+00      0.8254991164E+00
          0                 2           2             4   13     1      -0.7562733705E-02       4   13    1        -0.4995423220E+00      0.8116501815E+00
          0                 3           2             4   13     1      -0.6160272600E-03       4   13    1        -0.3653965227E-01      0.5160139378E-01
          0                 4           2             2   13     1      -0.2712165986E-03       4   13    1        -0.1593511986E-01      0.2860969208E-01
          0                 5           1             4   13     1      -0.8536276678E-04       4   13    1        -0.5047084186E-02      0.8732435128E-02

    ------------------------------------------------
       NWT REQUIRED            5 OUTER ITERATIONS 
       AND A TOTAL OF          9 INNER ITERATIONS.
    ------------------------------------------------

 NO OUTPUT CONTROL FOR STRESS PERIOD   31   TIME STEP   14
 
 SOLVING FOR HEAD 
                                                   Max.-Head-Change                         Max.-Flux-Residual
  Residual-Control   Outer-Iter.   Inner-Iter.     Column Row Layer    Maximum-Head-Change  Column Row Layer    Maximum-Flux-Residual          L2-NORM 
          0                 1           2             4   13     1       0.7525560375E-02       4   13    1         0.4344402323E+00      0.8400629348E+00
          0                 2           2             4   13     1      -0.7462463218E-02       4   13    1        -0.4928489961E+00      0.8092934370E+00
          0                 3           2             4   13     1      -0.7371140829E-03       4   13    1        -0.4376886161E-01      0.5690734399E-01
          0                 4           2             2   13     1      -0.2719266298E-03       2   13    1        -0.1577668144E-01      0.2838911964E-01
          0                 5           1             4   13     1      -0.8604585768E-04       4   13    1        -0.5087831816E-02      0.8761179899E-02

    ------------------------------------------------
       NWT REQUIRED            5 OUTER ITERATIONS 
       AND A TOTAL OF          9 INNER ITERATIONS.
    ------------------------------------------------

 NO OUTPUT CONTROL FOR STRESS PERIOD   31   TIME STEP   15
 
 SOLVING FOR HEAD 
                                                   Max.-Head-Change                         Max.-Flux-Residual
  Residual-Control   Outer-Iter.   Inner-Iter.     Column Row Layer    Maximum-Head-Change  Column Row Layer    Maximum-Flux-Residual          L2-NORM 
          0                 1           2             4   13     1       0.7630737093E-02       4   13    1         0.4404680123E+00      0.8531068857E+00
          0                 2           2             4   13     1      -0.7379127747E-02       4   13    1        -0.4872796940E+00      0.8080510834E+00
          0                 3           2             4   13     1      -0.8417050595E-03       4   13    1        -0.5001678222E-01      0.6149622751E-01
          0                 4           2             2   13     1      -0.2711407850E-03       2   13    1        -0.1573117681E-01      0.2803927181E-01
          0                 5           1             4   13     1      -0.8608329033E-04       4   13    1        -0.5090343951E-02      0.8729837925E-02

    ------------------------------------------------
       NWT REQUIRED            5 OUTER ITERATIONS 
       AND A TOTAL OF          9 INNER ITERATIONS.
    ------------------------------------------------

 NO OUTPUT CONTROL FOR STRESS PERIOD   31   TIME STEP   16
 
 SOLVING FOR HEAD 
                                                   Max.-Head-Change                         Max.-Flux-Residual
  Residual-Control   Outer-Iter.   Inner-Iter.     Column Row Layer    Maximum-Head-Change  Column Row Layer    Maximum-Flux-Residual          L2-NORM 
          0                 1           2             4   13     1       0.7726410035E-02       4   13    1         0.4459573371E+00      0.8648037384E+00
          0                 2           2             2   13     1      -0.7303485852E-02       4   13    1        -0.4815868708E+00      0.8058475254E+00
          0                 3           2             4   13     1      -0.9435142781E-03       4   13    1        -0.5609381981E-01      0.6659665222E-01
          0                 4           2             2   13     1      -0.2722020780E-03       2   13    1        -0.1579285159E-01      0.2791630475E-01
          0                 5           1             4   13     1      -0.8679250727E-04       4   13    1        -0.5132561123E-02      0.8770263658E-02

    ------------------------------------------------
       NWT REQUIRED            5 OUTER ITERATIONS 
       AND A TOTAL OF          9 INNER ITERATIONS.
    ------------------------------------------------

 NO OUTPUT CONTROL FOR STRESS PERIOD   31   TIME STEP   17
 
 SOLVING FOR HEAD 
                                                   Max.-Head-Change                         Max.-Flux-Residual
  Residual-Control   Outer-Iter.   Inner-Iter.     Column Row Layer    Maximum-Head-Change  Column Row Layer    Maximum-Flux-Residual          L2-NORM 
          0                 1           2             4   13     1       0.7813210358E-02       4   13    1         0.4509419484E+00      0.8753074825E+00
          0                 2           2             2   13     1      -0.7324236224E-02       4   13    1        -0.4764036851E+00      0.8038435066E+00
          0                 3           2             4   13     1      -0.1036110852E-02       4   13    1        -0.6162088831E-01      0.7137196099E-01
          0                 4           2             2   13     1      -0.2732059444E-03       2   13    1        -0.1585118310E-01      0.2781189707E-01
          0                 5           1             4   13     1      -0.8745364089E-04       4   13    1        -0.5171909088E-02      0.8807778352E-02

    ------------------------------------------------
       NWT REQUIRED            5 OUTER ITERATIONS 
       AND A TOTAL OF          9 INNER ITERATIONS.
    ------------------------------------------------

 NO OUTPUT CONTROL FOR STRESS PERIOD   31   TIME STEP   18
 
 SOLVING FOR HEAD 
                                                   Max.-Head-Change                         Max.-Flux-Residual
  Residual-Control   Outer-Iter.   Inner-Iter.     Column Row Layer    Maximum-Head-Change  Column Row Layer    Maximum-Flux-Residual          L2-NORM 
          0                 1           2             4   13     1       0.7891953020E-02       4   13    1         0.4554671777E+00      0.8847509903E+00
          0                 2           2             2   13     1      -0.7349542553E-02       4   13    1        -0.4720731522E+00      0.8026960234E+00
          0                 3           2             4   13     1      -0.1116271592E-02       4   13    1        -0.6640825217E-01      0.7540671092E-01
          0                 4           2             2   13     1      -0.2730175366E-03       2   13    1        -0.1584031990E-01      0.2760313910E-01
          0                 5           1             4   13     1      -0.8766017883E-04       4   13    1        -0.5184363799E-02      0.8801760343E-02

    ------------------------------------------------
       NWT REQUIRED            5 OUTER ITERATIONS 
       AND A TOTAL OF          9 INNER ITERATIONS.
    ------------------------------------------------

 NO OUTPUT CONTROL FOR STRESS PERIOD   31   TIME STEP   19
 
 SOLVING FOR HEAD 
                                                   Max.-Head-Change                         Max.-Flux-Residual
  Residual-Control   Outer-Iter.   Inner-Iter.     Column Row Layer    Maximum-Head-Change  Column Row Layer    Maximum-Flux-Residual          L2-NORM 
          0                 1           2             4   13     1       0.7963441697E-02       4   13    1         0.4595778689E+00      0.8932690514E+00
          0                 2           2             2   13     1      -0.7361763769E-02       4   13    1        -0.4674518720E+00      0.8004887186E+00
          0                 3           2             4   13     1      -0.1196395866E-02       4   13    1        -0.7118852357E-01      0.7984865745E-01
          0                 4           2             2   13     1      -0.2747976623E-03       2   13    1        -0.1594369599E-01      0.2762304200E-01
          0                 5           1             4   13     1      -0.8855631099E-04       4   13    1        -0.5237552168E-02      0.8868892847E-02

    ------------------------------------------------
       NWT REQUIRED            5 OUTER ITERATIONS 
       AND A TOTAL OF          9 INNER ITERATIONS.
    ------------------------------------------------

 NO OUTPUT CONTROL FOR STRESS PERIOD   31   TIME STEP   20
 
 SOLVING FOR HEAD 
                                                   Max.-Head-Change                         Max.-Flux-Residual
  Residual-Control   Outer-Iter.   Inner-Iter.     Column Row Layer    Maximum-Head-Change  Column Row Layer    Maximum-Flux-Residual          L2-NORM 
          0                 1           2             4   13     1       0.8028125192E-02       4   13    1         0.4632988485E+00      0.9009480184E+00
          0                 2           2             2   13     1      -0.7380064689E-02       4   13    1        -0.4636831459E+00      0.7992457880E+00
          0                 3           2             4   13     1      -0.1264634177E-02       4   13    1        -0.7526251774E-01      0.8348013415E-01
          0                 4           2             2   13     1      -0.2752127056E-03       2   13    1        -0.1596786066E-01      0.2751368183E-01
          0                 5           1             4   13     1      -0.8892104662E-04       4   13    1        -0.5259326971E-02      0.8882231964E-02

    ------------------------------------------------
       NWT REQUIRED            5 OUTER ITERATIONS 
       AND A TOTAL OF          9 INNER ITERATIONS.
    ------------------------------------------------

 NO OUTPUT CONTROL FOR STRESS PERIOD   31   TIME STEP   21
 
 SOLVING FOR HEAD 
                                                   Max.-Head-Change                         Max.-Flux-Residual
  Residual-Control   Outer-Iter.   Inner-Iter.     Column Row Layer    Maximum-Head-Change  Column Row Layer    Maximum-Flux-Residual          L2-NORM 
          0                 1           2             4   13     1       0.8086838016E-02       4   13    1         0.4666775301E+00      0.9078939885E+00
          0                 2           2             4   13     1      -0.7838122312E-02       4   13    1        -0.4636618589E+00      0.8000994011E+00
          0                 3           2             2   13     1      -0.4200770994E-03       2   13    1        -0.2438226342E-01      0.4332758857E-01
          0                 4           2             4   13     1      -0.2861458557E-03       4   13    1        -0.1691810571E-01      0.2962044439E-01
          0                 5           1             4   13     1      -0.8482216963E-04       4   13    1        -0.5014586764E-02      0.8446224914E-02

    ------------------------------------------------
       NWT REQUIRED            5 OUTER ITERATIONS 
       AND A TOTAL OF          9 INNER ITERATIONS.
    ------------------------------------------------

 NO OUTPUT CONTROL FOR STRESS PERIOD   31   TIME STEP   22
 
 SOLVING FOR HEAD 
                                                   Max.-Head-Change                         Max.-Flux-Residual
  Residual-Control   Outer-Iter.   Inner-Iter.     Column Row Layer    Maximum-Head-Change  Column Row Layer    Maximum-Flux-Residual          L2-NORM 
          0                 1           2             4   13     1       0.8139924343E-02       4   13    1         0.4697329344E+00      0.9141791190E+00
          0                 2           2             4   13     1      -0.7844435796E-02       4   13    1        -0.4640349798E+00      0.8011025071E+00
          0                 3           2             2   13     1      -0.4195981664E-03       2   13    1        -0.2435429282E-01      0.4329141024E-01
          0                 4           2             4   13     1      -0.2862949793E-03       4   13    1        -0.1692699546E-01      0.2932906222E-01
          0                 5           1             4   13     1      -0.8483508272E-04       4   13    1        -0.5015319184E-02      0.8759844073E-02

    ------------------------------------------------
       NWT REQUIRED            5 OUTER ITERATIONS 
       AND A TOTAL OF          9 INNER ITERATIONS.
    ------------------------------------------------

 NO OUTPUT CONTROL FOR STRESS PERIOD   31   TIME STEP   23
 
 SOLVING FOR HEAD 
                                                   Max.-Head-Change                         Max.-Flux-Residual
  Residual-Control   Outer-Iter.   Inner-Iter.     Column Row Layer    Maximum-Head-Change  Column Row Layer    Maximum-Flux-Residual          L2-NORM 
          0                 1           2             4   13     1       0.8188039908E-02       4   13    1         0.4725026565E+00      0.9198797934E+00
          0                 2           2             4   13     1      -0.7849988424E-02       4   13    1        -0.4643631556E+00      0.8020073157E+00
          0                 3           2             2   13     1      -0.4192918361E-03       2   13    1        -0.2433641088E-01      0.4327139336E-01
          0                 4           2             4   13     1      -0.2863886693E-03       4   13    1        -0.1693253466E-01      0.2934036607E-01
          0                 5           1             4   13     1      -0.8485940144E-04       4   13    1        -0.5016751955E-02      0.8764420540E-02

    ------------------------------------------------
       NWT REQUIRED            5 OUTER ITERATIONS 
       AND A TOTAL OF          9 INNER ITERATIONS.
    ------------------------------------------------

 NO OUTPUT CONTROL FOR STRESS PERIOD   31   TIME STEP   24
 
 SOLVING FOR HEAD 
                                                   Max.-Head-Change                         Max.-Flux-Residual
  Residual-Control   Outer-Iter.   Inner-Iter.     Column Row Layer    Maximum-Head-Change  Column Row Layer    Maximum-Flux-Residual          L2-NORM 
          0                 1           2             4   13     1       0.8231643193E-02       4   13    1         0.4750126805E+00      0.9250551416E+00
          0                 2           2             4   13     1      -0.7854976295E-02       4   13    1        -0.4646579443E+00      0.8028294276E+00
          0                 3           2             2   13     1      -0.4188388774E-03       2   13    1        -0.2430991493E-01      0.4324875162E-01
          0                 4           2             4   13     1      -0.2864698586E-03       4   13    1        -0.1693733479E-01      0.2935580560E-01
          0                 5           1             4   13     1      -0.8488851383E-04       4   13    1        -0.5018482984E-02      0.8768108427E-02

    ------------------------------------------------
       NWT REQUIRED            5 OUTER ITERATIONS 
       AND A TOTAL OF          9 INNER ITERATIONS.
    ------------------------------------------------

 NO OUTPUT CONTROL FOR STRESS PERIOD   31   TIME STEP   25
 
 SOLVING FOR HEAD 
                                                   Max.-Head-Change                         Max.-Flux-Residual
  Residual-Control   Outer-Iter.   Inner-Iter.     Column Row Layer    Maximum-Head-Change  Column Row Layer    Maximum-Flux-Residual          L2-NORM 
          0                 1           2             4   13     1       0.8271196761E-02       4   13    1         0.4772893700E+00      0.9297590502E+00
          0                 2           2             4   13     1      -0.7859518077E-02       4   13    1        -0.4649263620E+00      0.8035813942E+00
          0                 3           2             2   13     1      -0.4185156407E-03       2   13    1        -0.2429102097E-01      0.4323055047E-01
          0                 4           2             4   13     1      -0.2865717538E-03       4   13    1        -0.1694336966E-01      0.2936941570E-01
          0                 5           1             4   13     1      -0.8490890136E-04       4   13    1        -0.5019690387E-02      0.8770261652E-02

    ------------------------------------------------
       NWT REQUIRED            5 OUTER ITERATIONS 
       AND A TOTAL OF          9 INNER ITERATIONS.
    ------------------------------------------------

 NO OUTPUT CONTROL FOR STRESS PERIOD   31   TIME STEP   26
 
 SOLVING FOR HEAD 
                                                   Max.-Head-Change                         Max.-Flux-Residual
  Residual-Control   Outer-Iter.   Inner-Iter.     Column Row Layer    Maximum-Head-Change  Column Row Layer    Maximum-Flux-Residual          L2-NORM 
          0                 1           2             4   13     1       0.8306986801E-02       4   13    1         0.4793491764E+00      0.9340407916E+00
          0                 2           2             4   13     1      -0.7863604384E-02       4   13    1        -0.4651678328E+00      0.8042680682E+00
          0                 3           2             2   13     1      -0.4182389836E-03       2   13    1        -0.2427484345E-01      0.4321573206E-01
          0                 4           2             4   13     1      -0.2866567995E-03       4   13    1        -0.1694839862E-01      0.2938158687E-01
          0                 5           1             4   13     1      -0.8493037618E-04       4   13    1        -0.5020962123E-02      0.8773350660E-02

    ------------------------------------------------
       NWT REQUIRED            5 OUTER ITERATIONS 
       AND A TOTAL OF          9 INNER ITERATIONS.
    ------------------------------------------------

 NO OUTPUT CONTROL FOR STRESS PERIOD   31   TIME STEP   27
 
 SOLVING FOR HEAD 
                                                   Max.-Head-Change                         Max.-Flux-Residual
  Residual-Control   Outer-Iter.   Inner-Iter.     Column Row Layer    Maximum-Head-Change  Column Row Layer    Maximum-Flux-Residual          L2-NORM 
          0                 1           2             4   13     1       0.8339363258E-02       4   13    1         0.4812120177E+00      0.9379337952E+00
          0                 2           2             4   13     1      -0.7867253735E-02       4   13    1        -0.4653834216E+00      0.8048934666E+00
          0                 3           2             2   13     1      -0.4161171923E-03       2   13    1        -0.2415161038E-01      0.4300628539E-01
          0                 4           2             4   13     1      -0.2865733275E-03       4   13    1        -0.1694348262E-01      0.2937662157E-01
          0                 5           1             4   13     1      -0.8499791023E-04       4   13    1        -0.5024964881E-02      0.8779199091E-02

    ------------------------------------------------
       NWT REQUIRED            5 OUTER ITERATIONS 
       AND A TOTAL OF          9 INNER ITERATIONS.
    ------------------------------------------------

 NO OUTPUT CONTROL FOR STRESS PERIOD   31   TIME STEP   28
 
 SOLVING FOR HEAD 
                                                   Max.-Head-Change                         Max.-Flux-Residual
  Residual-Control   Outer-Iter.   Inner-Iter.     Column Row Layer    Maximum-Head-Change  Column Row Layer    Maximum-Flux-Residual          L2-NORM 
          0                 1           2             4   13     1       0.8368638040E-02       4   13    1         0.4828960476E+00      0.9414661448E+00
          0                 2           2             4   13     1      -0.7870590738E-02       4   13    1        -0.4655805434E+00      0.8054671787E+00
          0                 3           2             2   13     1      -0.4160645084E-03       2   13    1        -0.2414844489E-01      0.4301341297E-01
          0                 4           2             4   13     1      -0.2866824615E-03       4   13    1        -0.1694993489E-01      0.2939059262E-01
          0                 5           1             4   13     1      -0.8498059262E-04       4   13    1        -0.5023935568E-02      0.8779383732E-02

    ------------------------------------------------
       NWT REQUIRED            5 OUTER ITERATIONS 
       AND A TOTAL OF          9 INNER ITERATIONS.
    ------------------------------------------------

 NO OUTPUT CONTROL FOR STRESS PERIOD   31   TIME STEP   29
 
 SOLVING FOR HEAD 
                                                   Max.-Head-Change                         Max.-Flux-Residual
  Residual-Control   Outer-Iter.   Inner-Iter.     Column Row Layer    Maximum-Head-Change  Column Row Layer    Maximum-Flux-Residual          L2-NORM 
          0                 1           2             4   13     1       0.8395090590E-02       4   13    1         0.4844170875E+00      0.9446863622E+00
          0                 2           2             4   13     1      -0.7873581255E-02       4   13    1        -0.4657571278E+00      0.8059927261E+00
          0                 3           2             2   13     1      -0.4160479452E-03       2   13    1        -0.2414735403E-01      0.4302535619E-01
          0                 4           2             4   13     1      -0.2869018942E-03       4   13    1        -0.1695496626E-01      0.2985754068E-01
          0                 5           1             4   13     1      -0.8485342571E-04       4   13    1        -0.5024967269E-02      0.8348062149E-02

    ------------------------------------------------
       NWT REQUIRED            5 OUTER ITERATIONS 
       AND A TOTAL OF          9 INNER ITERATIONS.
    ------------------------------------------------

 NO OUTPUT CONTROL FOR STRESS PERIOD   31   TIME STEP   30



 STREAM LISTING     PERIOD     31   STEP       30

 LAYER ROW COL. STREAM  RCH.  FLOW INTO     FLOW TO   FLOW OUT OF   OVRLND.     DIRECT     STREAM       STREAM     STREAM     STREAM   STREAMBED  STREAMBED
                SEG.NO.  NO.  STRM. RCH.    AQUIFER    STRM. RCH.    RUNOFF     PRECIP       ET          HEAD       DEPTH      WIDTH   CONDCTNC.   GRADIENT

   1    1    1     1     1    6.2248E+01  3.7978E-01   6.1868E+01  0.000E+00  0.000E+00  0.000E+00  1.09460E+03  1.553E+00  1.854E+01  8.342E-02  1.518E+00
   1    2    2     1     2    6.1868E+01  5.8816E-01   6.1280E+01  0.000E+00  0.000E+00  0.000E+00  1.08961E+03  1.547E+00  1.848E+01  1.294E-01  1.516E+00
   1    3    3     1     3    6.1280E+01  5.0162E-01   6.0779E+01  0.000E+00  0.000E+00  0.000E+00  1.08396E+03  1.540E+00  1.841E+01  1.105E-01  1.513E+00
   1    3    4     1     4    6.0779E+01  4.6193E-01   6.0317E+01  0.000E+00  0.000E+00  0.000E+00  1.07894E+03  1.534E+00  1.836E+01  1.019E-01  1.511E+00
   1    4    5     2     1    5.8317E+01  3.9026E-01   5.7926E+01  0.000E+00  0.000E+00  0.000E+00  1.07394E+03  2.003E+00  1.200E+01  7.800E-02  1.668E+00
   1    5    6     2     2    5.7926E+01  2.9977E-01   5.7627E+01  0.000E+00  0.000E+00  0.000E+00  1.06851E+03  1.996E+00  1.200E+01  6.000E-02  1.665E+00
   1    6    6     2     3    5.7627E+01  2.9940E-01   5.7327E+01  0.000E+00  0.000E+00  0.000E+00  1.06378E+03  1.990E+00  1.200E+01  6.000E-02  1.663E+00
   1    7    6     2     4    5.7327E+01  2.9902E-01   5.7028E+01  0.000E+00  0.000E+00  0.000E+00  1.05906E+03  1.984E+00  1.200E+01  6.000E-02  1.661E+00
   1    8    6     2     5    5.7028E+01  2.9865E-01   5.6730E+01  0.000E+00  0.000E+00  0.000E+00  1.05434E+03  1.977E+00  1.200E+01  6.000E-02  1.659E+00
   1    3    5     3     1    2.0000E+00  2.8252E-01   1.7175E+00  0.000E+00  0.000E+00  0.000E+00  1.07555E+03  1.909E+00  9.636E+00  7.227E-02  1.955E+00
   1    3    6     3     2    1.7175E+00  2.4905E-01   1.4684E+00  0.000E+00  0.000E+00  0.000E+00  1.07264E+03  1.727E+00  8.909E+00  6.682E-02  1.864E+00
   1    3    7     3     3    1.4684E+00  1.9718E-01   1.2712E+00  0.000E+00  0.000E+00  0.000E+00  1.06987E+03  1.555E+00  8.218E+00  5.547E-02  1.777E+00
   1    4    8     3     4    1.2712E+00  2.2567E-01   1.0456E+00  0.000E+00  0.000E+00  0.000E+00  1.06682E+03  1.364E+00  7.455E+00  6.709E-02  1.682E+00
   1    5    8     3     5    1.0456E+00  1.5790E-01   8.8768E-01  0.000E+00  0.000E+00  0.000E+00  1.06362E+03  1.164E+00  6.655E+00  4.991E-02  1.582E+00
   1    6    8     3     6    8.8768E-01  5.5980E-02   8.3170E-01  0.000E+00  0.000E+00  0.000E+00  1.06158E+03  1.036E+00  6.145E+00  1.844E-02  1.518E+00
   1    5   10     4     1    1.0000E+01  9.0919E-02   9.9091E+00  0.000E+00  0.000E+00  0.000E+00  1.07836E+03  6.368E-01  1.000E+01  2.500E-02  1.212E+00
   1    5    9     4     2    9.9091E+00  1.8158E-01   9.7275E+00  0.000E+00  0.000E+00  0.000E+00  1.07154E+03  6.315E-01  1.000E+01  5.000E-02  1.211E+00
   1    6    8     4     3    9.7275E+00  1.2689E-01   9.6006E+00  0.000E+00  0.000E+00  0.000E+00  1.06381E+03  6.256E-01  1.000E+01  3.500E-02  1.209E+00
   1    6    8     5     1    1.0432E+01  2.2686E-01   1.0205E+01  0.000E+00  0.000E+00  0.000E+00  1.05868E+03  6.790E-01  1.542E+01  6.166E-02  1.226E+00
   1    7    7     5     2    1.0205E+01  2.7894E-01   9.9265E+00  0.000E+00  0.000E+00  0.000E+00  1.05417E+03  6.732E-01  1.519E+01  7.594E-02  1.224E+00
   1    8    7     5     3    9.9265E+00  1.9221E-01   9.7343E+00  0.000E+00  0.000E+00  0.000E+00  1.04992E+03  6.676E-01  1.497E+01  5.241E-02  1.223E+00
   1    8    6     5     4    9.7343E+00  1.3577E-01   9.5985E+00  0.000E+00  0.000E+00  0.000E+00  1.04691E+03  6.637E-01  1.482E+01  3.706E-02  1.221E+00
   1    9    6     6     1    4.4067E+01  2.8287E-01   4.3784E+01  0.000E+00  0.000E+00  0.000E+00  1.04444E+03  1.715E+00  1.200E+01  6.000E-02  1.572E+00
   1   10    7     6     2    4.3784E+01  2.8248E-01   4.3502E+01  0.000E+00  0.000E+00  0.000E+00  1.03989E+03  1.708E+00  1.200E+01  6.000E-02  1.569E+00
   1   11    7     6     3    4.3502E+01  2.8208E-01   4.3220E+01  0.000E+00  0.000E+00  0.000E+00  1.03534E+03  1.701E+00  1.200E+01  6.000E-02  1.567E+00
   1   12    7     6     4    4.3220E+01  2.8168E-01   4.2938E+01  0.000E+00  0.000E+00  0.000E+00  1.03079E+03  1.695E+00  1.200E+01  6.000E-02  1.565E+00
   1   13    7     6     5    4.2938E+01  1.1817E-02   4.2926E+01  0.000E+00  0.000E+00  0.000E+00  1.02760E+03  1.691E+00  1.200E+01  2.400E-02  1.641E-01
   1   14    9     7     1    1.5000E+02  1.3390E+00   1.4866E+02  0.000E+00  0.000E+00  0.000E+00  1.03987E+03  2.288E+00  5.529E+01  5.593E-01  7.980E-01
   1   13    8     7     2    1.4866E+02  1.8318E+00   1.4683E+02  0.000E+00  0.000E+00  0.000E+00  1.03478E+03  2.279E+00  5.526E+01  6.148E-01  9.932E-01
   1   13    7     7     3    1.4683E+02  1.4419E+00   1.4539E+02  0.000E+00  0.000E+00  0.000E+00  1.02969E+03  2.271E+00  5.522E+01  5.585E-01  8.606E-01
   1   13    6     8     1    1.8831E+02  9.6159E-01   1.8735E+02  0.000E+00  0.000E+00  0.000E+00  1.02494E+03  3.065E+00  4.445E+01  4.529E-01  7.077E-01
   1   13    5     8     2    1.8735E+02  1.8230E-01   1.8717E+02  0.000E+00  0.000E+00  0.000E+00  1.01869E+03  3.062E+00  4.440E+01  4.524E-01  1.343E-01
   1   13    4     8     3    1.8717E+02 -2.4681E+00   1.8964E+02  0.000E+00  0.000E+00  0.000E+00  1.01244E+03  3.069E+00  4.450E+01  4.534E+00 -1.814E-01
   1   13    3     8     4    1.8964E+02 -3.6257E+00   1.9326E+02  0.000E+00  0.000E+00  0.000E+00  1.00621E+03  3.087E+00  4.477E+01  4.562E+00 -2.649E-01
   1   13    2     8     5    1.9326E+02 -2.5968E+00   1.9586E+02  0.000E+00  0.000E+00  0.000E+00  9.99981E+02  3.106E+00  4.504E+01  4.589E+00 -1.886E-01
   1   13    1     8     6    1.9586E+02 -2.0229E+00   1.9788E+02  0.000E+00  0.000E+00  0.000E+00  9.94995E+02  3.120E+00  4.524E+01  2.766E+00 -2.438E-01
   1    8    6     9     1    2.2261E+01  0.0000E+00   2.2261E+01  0.000E+00  0.000E+00  0.000E+00  1.08240E+03  3.653E+00  4.000E+00  0.000E+00  2.218E+00
   1    8    5     9     2    2.2261E+01  0.0000E+00   2.2261E+01  0.000E+00  0.000E+00  0.000E+00  1.08190E+03  3.653E+00  4.000E+00  0.000E+00  2.218E+00





UNSATURATED ZONE PACKAGE VOLUMETRIC BUDGET FOR  TIME STEP    30 STRESS PERIOD   31
  ------------------------------------------------------------------------------



     CUMULATIVE VOLUMES      L**3       RATES FOR THIS TIME STEP      L**3/T
     ------------------                 ------------------------

           IN:                                      IN:
           ---                                      ---
        INFILTRATION =  1223742386.5916          INFILTRATION =          26.6687

          OUT:                                     OUT:
          ----                                     ----
              UZF ET =  1128871540.6350                UZF ET =          26.5765
        UZF RECHARGE =     1188922.5148          UZF RECHARGE =       0.0000E+00

            IN - OUT =    93681923.4417              IN - OUT =       9.2255E-02

          STORAGE:                                 STORAGE:
          --------                                 --------
      STORAGE CHANGE =    93682899.6119        STORAGE CHANGE =       9.2255E-02

 PERCENT DISCREPANCY IS DIFFERENCE BETWEEN IN-OUT MINUS CHANGE IN STORAGE
 DIVIDED BY THE AVERAGE OF IN AND OUT TIMES 100

 PERCENT DISCREPANCY =          -0.00     PERCENT DISCREPANCY =           0.00






1
  VOLUMETRIC BUDGET FOR AGRICULTURAL FIELDS AT TIME STEP   30, STRESS PERIOD  31
  ------------------------------------------------------------------------------

     CUMULATIVE VOLUMES      L**3       RATES FOR THIS TIME STEP      L**3/T
     ------------------                 ------------------------

           IN:                                      IN:
           ---                                      ---
               AG WELLS  =   175546176.0000                 AG WELLS  =           0.0000
      DIVERSION SEGMENTS =   700357632.0000        DIVERSION SEGMENTS =          22.2608
           GW IRRIGATION =           0.0000             GW IRRIGATION =           0.0000
           SW IRRIGATION =           0.0000             SW IRRIGATION =           0.0000
        SYSTEM LOSSES GW =           0.0000          SYSTEM LOSSES GW =           0.0000
        SYSTEM LOSSES SW =           0.0000          SYSTEM LOSSES SW =           0.0000

                TOTAL IN =   875903808.0000                  TOTAL IN =          22.2608

          OUT:                                     OUT:
          ----                                     ----
               AG WELLS  =           0.0000                 AG WELLS  =           0.0000
      DIVERSION SEGMENTS =           0.0000        DIVERSION SEGMENTS =           0.0000
           GW IRRIGATION =   175546176.0000             GW IRRIGATION =           0.0000
           SW IRRIGATION =   700372544.0000             SW IRRIGATION =          22.2612
        SYSTEM LOSSES GW =           0.0000          SYSTEM LOSSES GW =           0.0000
        SYSTEM LOSSES SW =           0.0000          SYSTEM LOSSES SW =           0.0000

               TOTAL OUT =   875918720.0000                 TOTAL OUT =          22.2612

                IN - OUT =      -14912.0000                  IN - OUT =      -4.4441E-04

     PERCENT DISCREPANCY =          -0.00         PERCENT DISCREPANCY =          -0.00



1
  VOLUMETRIC BUDGET FOR ENTIRE MODEL AT END OF TIME STEP   30, STRESS PERIOD  31
  ------------------------------------------------------------------------------

     CUMULATIVE VOLUMES      L**3       RATES FOR THIS TIME STEP      L**3/T
     ------------------                 ------------------------

           IN:                                      IN:
           ---                                      ---
             STORAGE     =   309269792.0000               STORAGE     =           0.6832
       CONSTANT HEAD     =           0.0000         CONSTANT HEAD     =           0.0000
     HEAD DEP BOUNDS     =    22573606.0000       HEAD DEP BOUNDS     =           0.2860
      STREAM LEAKAGE     =   943231040.0000        STREAM LEAKAGE     =          12.8175
        UZF RECHARGE     =     1188922.5000          UZF RECHARGE     =           0.0000
               GW ET     =           0.0000                 GW ET     =           0.0000
     SURFACE LEAKAGE     =           0.0000       SURFACE LEAKAGE     =           0.0000
           AG WELLS      =           0.0000             AG WELLS      =           0.0000

                TOTAL IN =  1276263296.0000                  TOTAL IN =          13.7866

          OUT:                                     OUT:
          ----                                     ----
             STORAGE     =   220963184.0000               STORAGE     =           2.7257
       CONSTANT HEAD     =           0.0000         CONSTANT HEAD     =           0.0000
     HEAD DEP BOUNDS     =    22977158.0000       HEAD DEP BOUNDS     =           0.2936
      STREAM LEAKAGE     =   853443968.0000        STREAM LEAKAGE     =          10.7135
        UZF RECHARGE     =           0.0000          UZF RECHARGE     =           0.0000
               GW ET     =     3295915.0000                 GW ET     =       5.2506E-02
     SURFACE LEAKAGE     =           0.0000       SURFACE LEAKAGE     =           0.0000
           AG WELLS      =   175546176.0000             AG WELLS      =           0.0000

               TOTAL OUT =  1276226304.0000                 TOTAL OUT =          13.7853

                IN - OUT =       36992.0000                  IN - OUT =       1.3428E-03

     PERCENT DISCREPANCY =           0.00         PERCENT DISCREPANCY =           0.01






         TIME SUMMARY AT END OF TIME STEP   30 IN STRESS PERIOD   31
                    SECONDS     MINUTES      HOURS       DAYS        YEARS
                    -----------------------------------------------------------
   TIME STEP LENGTH  87667.      1461.1      24.352      1.0147     2.77799E-03
 STRESS PERIOD TIME 2.63000E+06  43833.      730.56      30.440     8.33397E-02
         TOTAL TIME 7.89864E+07 1.31644E+06  21941.      914.20      2.5029    
1
1
                            STRESS PERIOD NO.   32, LENGTH =   2630000.    
                            -----------------------------------------------

                              NUMBER OF TIME STEPS =    30

                               MULTIPLIER FOR DELT =     1.000

                            INITIAL TIME STEP SIZE =   87666.66    

 REUSING NON-PARAMETER GHB CELLS FROM LAST STRESS PERIOD

      2 GHB CELLS

 REUSING STREAM SEGMENT DATA FROM LAST STRESS PERIOD



            AREAL INFILTRATION RATE
 READING ON UNIT   19 WITH FORMAT: (10F4.0)            

            1           2           3           4           5           6           7           8           9          10
 ........................................................................................................................
   1   1.2000E-09   0.000       0.000       0.000       0.000       0.000       0.000       0.000       0.000       0.000    
   2   2.1000E-09  2.0000E-09  8.0000E-10  8.5000E-09   0.000       0.000       0.000       0.000       0.000       0.000    
   3   5.0000E-10  1.1000E-09  8.8000E-09  5.5000E-09   0.000       0.000       0.000       0.000       0.000       0.000    
   4   8.5000E-09  1.1000E-09  1.1000E-09  1.1000E-09  2.0000E-09   0.000       0.000       0.000       0.000       0.000    
   5   8.5000E-09  1.1000E-09  1.1000E-09  1.1000E-09  1.1000E-09   0.000       0.000       0.000       0.000       0.000    
   6   8.5000E-09  5.2000E-09  2.1000E-09  1.1000E-09  1.5000E-09   0.000       0.000       0.000       0.000       0.000    
   7   8.5000E-09  5.2000E-09  2.1000E-09  1.2000E-09  2.0000E-09   0.000       0.000       0.000       0.000       0.000    
   8   5.0000E-10  5.2000E-09  2.1000E-09  1.2000E-09  5.0000E-09   0.000       0.000       0.000       0.000       0.000    
   9   5.0000E-10  5.2000E-09  2.1000E-09  1.2000E-09  5.0000E-09   0.000       0.000       0.000       0.000       0.000    
  10   5.0000E-10  5.2000E-09  2.1000E-09  1.2000E-09  5.8000E-09   0.000       0.000       0.000       0.000       0.000    
  11   1.0000E-10  1.1000E-09  1.1000E-09  1.2000E-09  5.0000E-09   0.000       0.000       0.000       0.000       0.000    
  12   1.1000E-09  1.1000E-09  1.1000E-09  1.1000E-09  2.0000E-09   0.000       0.000       0.000       0.000       0.000    
  13   1.1000E-09  2.2000E-09  2.2000E-09  2.1000E-09  1.0000E-09   0.000       0.000       0.000       0.000       0.000    
  14   2.0000E-10  5.5000E-09  5.5000E-09  5.2000E-09  1.0000E-09   0.000       0.000       0.000       0.000       0.000    
  15    0.000      8.8000E-09  8.8000E-09   0.000       0.000       0.000       0.000       0.000       0.000       0.000    

                  ET RATE =  4.000000E-07

 USING ET EXTINCTION DEPTH FROM PREVIOUS STRESS PERIOD. CURRENT PERIOD IS:      32

 USING EXTINCTION WATER CONTENT FROM PREVIOUS STRESS PERIOD. CURRENT PERIOD IS:      32

 USING AIR ENTRY PRESSURE FROM PREVIOUS STRESS PERIOD. CURRENT PERIOD IS:      32

 USING ROOT PRESSURE HEAD FROM PREVIOUS STRESS PERIOD. CURRENT PERIOD IS:      32

 USING ROOT ACTIVITY FROM PREVIOUS STRESS PERIOD. CURRENT PERIOD IS:      32

 PROCESSING AG STRESS PERIOD DATA

 READING AG STRESS PERIOD DATA

 READING IRRIGATION SEGMENT

 READING IRRIGATION WELL

 READING SUPPLEMENTAL WELL

 END PROCESSING AG STRESS PERIOD DATA OPTIONS
 
 SOLVING FOR HEAD 
                                                   Max.-Head-Change                         Max.-Flux-Residual
  Residual-Control   Outer-Iter.   Inner-Iter.     Column Row Layer    Maximum-Head-Change  Column Row Layer    Maximum-Flux-Residual          L2-NORM 
          0                 1           2             4   13     1       0.6448690476E-02       4   13    1         0.3730105060E+00      0.6970978451E+00
          0                 2           2             4   13     1      -0.1976933125E-01       4   13    1        -0.1164336170E+01      0.2325299682E+01
          0                 3           2             4    7     1      -0.3630798326E-02       5    8    1        -0.1898568638E+00      0.4944622961E+00
          0                 4           2             4    7     1      -0.1904819224E-02       4    7    1        -0.9951239598E-01      0.2439104152E+00
          0                 5           2             4    7     1      -0.9433706570E-03       5    8    1        -0.4928459083E-01      0.1207218258E+00
          0                 6           2             4    7     1      -0.6012174422E-03       4    7    1        -0.3140903305E-01      0.7693520745E-01
          0                 7           2             4    7     1      -0.5195172870E-03       4    7    1        -0.2714083190E-01      0.6648077259E-01
          0                 8           2             4    7     1      -0.4310808058E-03       4    7    1        -0.2252069509E-01      0.5516382022E-01
          0                 9           2             4    7     1      -0.3594095295E-03       4    7    1        -0.1877641574E-01      0.4599231683E-01
          0                10           2             4    7     1      -0.2994972381E-03       4    7    1        -0.1564645374E-01      0.3832556004E-01
                                                   Max.-Head-Change                         Max.-Flux-Residual
  Residual-Control   Outer-Iter.   Inner-Iter.     Column Row Layer    Maximum-Head-Change  Column Row Layer    Maximum-Flux-Residual          L2-NORM 
          0                11           2             4    7     1      -0.2495786822E-03       4    7    1        -0.1303858856E-01      0.3193766581E-01
          0                12           2             4    7     1      -0.2079843731E-03       4    7    1        -0.1086560207E-01      0.2661499497E-01
          0                13           2             4    7     1      -0.1733227609E-03       4    7    1        -0.9054796326E-02      0.2217947584E-01
          0                14           2             4    7     1      -0.1444300655E-03       4    7    1        -0.7545372650E-02      0.1848218392E-01
          0                15           2             4    7     1      -0.1203616077E-03       4    7    1        -0.6287978715E-02      0.1540223190E-01
          0                16           1             4    7     1      -0.1003036809E-03       4    7    1        -0.5240104513E-02      0.1283549274E-01
          0                17           1             4    7     1      -0.8358008156E-04       4    7    1        -0.4366423663E-02      0.1069543542E-01

    ------------------------------------------------
       NWT REQUIRED           17 OUTER ITERATIONS 
       AND A TOTAL OF         32 INNER ITERATIONS.
    ------------------------------------------------

 NO OUTPUT CONTROL FOR STRESS PERIOD   32   TIME STEP    1
 
 SOLVING FOR HEAD 
                                                   Max.-Head-Change                         Max.-Flux-Residual
  Residual-Control   Outer-Iter.   Inner-Iter.     Column Row Layer    Maximum-Head-Change  Column Row Layer    Maximum-Flux-Residual          L2-NORM 
          0                 1           2             4    7     1      -0.2540913343E-01       4    7    1        -0.1328101936E+01      0.3341182224E+01
          0                 2           2             4   13     1      -0.1953046996E-01       4   13    1        -0.1149530106E+01      0.2078856082E+01
          0                 3           2             3   13     1      -0.1966018272E-02       3   13    1        -0.1175664918E+00      0.1997220866E+00
          0                 4           2             3   13     1       0.1339576713E-03       3   13    1         0.8192786840E-02      0.1752217847E-01
          0                 5           1             4    7     1      -0.8516006905E-04       4    7    1        -0.4701478875E-02      0.1152452634E-01

    ------------------------------------------------
       NWT REQUIRED            5 OUTER ITERATIONS 
       AND A TOTAL OF          9 INNER ITERATIONS.
    ------------------------------------------------

 NO OUTPUT CONTROL FOR STRESS PERIOD   32   TIME STEP    2
 
 SOLVING FOR HEAD 
                                                   Max.-Head-Change                         Max.-Flux-Residual
  Residual-Control   Outer-Iter.   Inner-Iter.     Column Row Layer    Maximum-Head-Change  Column Row Layer    Maximum-Flux-Residual          L2-NORM 
          0                 1           2             4    7     1      -0.2524204745E-01       4    7    1        -0.1319990272E+01      0.3298877159E+01
          0                 2           2             4   13     1      -0.1974665482E-01       4   13    1        -0.1160557261E+01      0.2046003927E+01
          0                 3           2             7   13     1      -0.1797084281E-02       7   13    1        -0.1003223343E+00      0.1764590137E+00
          0                 4           2             7   13     1       0.1223186914E-03       7   13    1         0.7013272142E-02      0.1568595143E-01
          0                 5           1             4    7     1      -0.8534810721E-04       4    7    1        -0.4711828663E-02      0.1154456041E-01

    ------------------------------------------------
       NWT REQUIRED            5 OUTER ITERATIONS 
       AND A TOTAL OF          9 INNER ITERATIONS.
    ------------------------------------------------

 NO OUTPUT CONTROL FOR STRESS PERIOD   32   TIME STEP    3
 
 SOLVING FOR HEAD 
                                                   Max.-Head-Change                         Max.-Flux-Residual
  Residual-Control   Outer-Iter.   Inner-Iter.     Column Row Layer    Maximum-Head-Change  Column Row Layer    Maximum-Flux-Residual          L2-NORM 
          0                 1           2             4    7     1      -0.2506896966E-01       4    7    1        -0.1311503013E+01      0.3261947131E+01
          0                 2           2             4   13     1      -0.1991609321E-01       4   13    1        -0.1170553800E+01      0.2059899130E+01
          0                 3           2             7   13     1      -0.1787160180E-02       7   13    1        -0.9976981581E-01      0.1768356826E+00
          0                 4           2             7   13     1       0.1216431166E-03       7   13    1         0.6974593631E-02      0.1567521339E-01
          0                 5           1             4    7     1      -0.8519199689E-04       4    7    1        -0.4703213474E-02      0.1152304447E-01

    ------------------------------------------------
       NWT REQUIRED            5 OUTER ITERATIONS 
       AND A TOTAL OF          9 INNER ITERATIONS.
    ------------------------------------------------

 NO OUTPUT CONTROL FOR STRESS PERIOD   32   TIME STEP    4
 
 SOLVING FOR HEAD 
                                                   Max.-Head-Change                         Max.-Flux-Residual
  Residual-Control   Outer-Iter.   Inner-Iter.     Column Row Layer    Maximum-Head-Change  Column Row Layer    Maximum-Flux-Residual          L2-NORM 
          0                 1           2             4    7     1      -0.2488736854E-01       4    7    1        -0.1302526792E+01      0.3229346988E+01
          0                 2           2             4   13     1      -0.2006975081E-01       4   13    1        -0.1179616527E+01      0.2072718111E+01
          0                 3           2             7   13     1      -0.1777498469E-02       7   13    1        -0.9923195538E-01      0.1771657372E+00
          0                 4           2             7   13     1       0.1209857240E-03       7   13    1         0.6936937623E-02      0.1566352029E-01
          0                 5           1             4    7     1      -0.8503571687E-04       4    7    1        -0.4694588566E-02      0.1150138093E-01

    ------------------------------------------------
       NWT REQUIRED            5 OUTER ITERATIONS 
       AND A TOTAL OF          9 INNER ITERATIONS.
    ------------------------------------------------

 NO OUTPUT CONTROL FOR STRESS PERIOD   32   TIME STEP    5
 
 SOLVING FOR HEAD 
                                                   Max.-Head-Change                         Max.-Flux-Residual
  Residual-Control   Outer-Iter.   Inner-Iter.     Column Row Layer    Maximum-Head-Change  Column Row Layer    Maximum-Flux-Residual          L2-NORM 
          0                 1           2             4    7     1      -0.2469762183E-01       4    7    1        -0.1293080828E+01      0.3200164044E+01
          0                 2           2             4   13     1      -0.2020924484E-01       4   13    1        -0.1187841366E+01      0.2084558627E+01
          0                 3           2             7   13     1      -0.1768084273E-02       7   13    1        -0.9870781831E-01      0.1774584616E+00
          0                 4           2             7   13     1       0.1203437746E-03       7   13    1         0.6900181722E-02      0.1565241744E-01
          0                 5           1             4    7     1      -0.8488113808E-04       4    7    1        -0.4686057022E-02      0.1148004252E-01

    ------------------------------------------------
       NWT REQUIRED            5 OUTER ITERATIONS 
       AND A TOTAL OF          9 INNER ITERATIONS.
    ------------------------------------------------

 NO OUTPUT CONTROL FOR STRESS PERIOD   32   TIME STEP    6
 
 SOLVING FOR HEAD 
                                                   Max.-Head-Change                         Max.-Flux-Residual
  Residual-Control   Outer-Iter.   Inner-Iter.     Column Row Layer    Maximum-Head-Change  Column Row Layer    Maximum-Flux-Residual          L2-NORM 
          0                 1           2             4    7     1      -0.2450083715E-01       4    7    1        -0.1283226127E+01      0.3173851641E+01
          0                 2           2             4   13     1      -0.2033590554E-01       4   13    1        -0.1195307234E+01      0.2095488663E+01
          0                 3           2             7   13     1      -0.1758913775E-02       7   13    1        -0.9819725061E-01      0.1777131556E+00
          0                 4           2             7   13     1       0.1197204805E-03       7   13    1         0.6864496964E-02      0.1564064159E-01
          0                 5           1             4    7     1      -0.8478107236E-04       4    7    1        -0.4677997168E-02      0.1145990160E-01

    ------------------------------------------------
       NWT REQUIRED            5 OUTER ITERATIONS 
       AND A TOTAL OF          9 INNER ITERATIONS.
    ------------------------------------------------

 NO OUTPUT CONTROL FOR STRESS PERIOD   32   TIME STEP    7
 
 SOLVING FOR HEAD 
                                                   Max.-Head-Change                         Max.-Flux-Residual
  Residual-Control   Outer-Iter.   Inner-Iter.     Column Row Layer    Maximum-Head-Change  Column Row Layer    Maximum-Flux-Residual          L2-NORM 
          0                 1           2             4    7     1      -0.2431135388E-01       4    7    1        -0.1273019836E+01      0.3149973052E+01
          0                 2           2             4   13     1      -0.2045098132E-01       4   13    1        -0.1202088082E+01      0.2105596730E+01
          0                 3           2             7   13     1      -0.1749977231E-02       7   13    1        -0.9769970886E-01      0.1779351857E+00
          0                 4           2             7   13     1       0.1191118636E-03       7   13    1         0.6829650425E-02      0.1562833928E-01
          0                 5           1             4    7     1      -0.8462414976E-04       4    7    1        -0.4669336138E-02      0.1143830745E-01

    ------------------------------------------------
       NWT REQUIRED            5 OUTER ITERATIONS 
       AND A TOTAL OF          9 INNER ITERATIONS.
    ------------------------------------------------

 NO OUTPUT CONTROL FOR STRESS PERIOD   32   TIME STEP    8
 
 SOLVING FOR HEAD 
                                                   Max.-Head-Change                         Max.-Flux-Residual
  Residual-Control   Outer-Iter.   Inner-Iter.     Column Row Layer    Maximum-Head-Change  Column Row Layer    Maximum-Flux-Residual          L2-NORM 
          0                 1           2             4    7     1      -0.2411512237E-01       4    7    1        -0.1263167144E+01      0.3128416654E+01
          0                 2           2             4   13     1      -0.2055560730E-01       4   13    1        -0.1208251261E+01      0.2114937233E+01
          0                 3           2             7   13     1      -0.1741269411E-02       7   13    1        -0.9721490006E-01      0.1781268755E+00
          0                 4           2             7   13     1       0.1185198621E-03       7   13    1         0.6795757146E-02      0.1561618077E-01
          0                 5           1             4    7     1      -0.8448019710E-04       4    7    1        -0.4661396270E-02      0.1141853903E-01

    ------------------------------------------------
       NWT REQUIRED            5 OUTER ITERATIONS 
       AND A TOTAL OF          9 INNER ITERATIONS.
    ------------------------------------------------

 NO OUTPUT CONTROL FOR STRESS PERIOD   32   TIME STEP    9
 
 SOLVING FOR HEAD 
                                                   Max.-Head-Change                         Max.-Flux-Residual
  Residual-Control   Outer-Iter.   Inner-Iter.     Column Row Layer    Maximum-Head-Change  Column Row Layer    Maximum-Flux-Residual          L2-NORM 
          0                 1           2             4    7     1      -0.2391286780E-01       4    7    1        -0.1252962093E+01      0.3108564627E+01
          0                 2           2             4   13     1      -0.2065077214E-01       4   13    1        -0.1213855286E+01      0.2122547834E+01
          0                 3           2             7   13     1      -0.1732779866E-02       7   13    1        -0.9674224411E-01      0.1779018565E+00
          0                 4           2             7   13     1       0.1179419308E-03       7   13    1         0.6762666857E-02      0.1469862508E-01
          0                 5           1             4    7     1      -0.7731990375E-04       4    7    1        -0.4266316632E-02      0.1045076190E-01

    ------------------------------------------------
       NWT REQUIRED            5 OUTER ITERATIONS 
       AND A TOTAL OF          9 INNER ITERATIONS.
    ------------------------------------------------

 NO OUTPUT CONTROL FOR STRESS PERIOD   32   TIME STEP   10
 
 SOLVING FOR HEAD 
                                                   Max.-Head-Change                         Max.-Flux-Residual
  Residual-Control   Outer-Iter.   Inner-Iter.     Column Row Layer    Maximum-Head-Change  Column Row Layer    Maximum-Flux-Residual          L2-NORM 
          0                 1           2             4    7     1      -0.2370492128E-01       4    7    1        -0.1242425726E+01      0.3090025386E+01
          0                 2           2             4   13     1      -0.2073740820E-01       4   13    1        -0.1218955407E+01      0.2128768287E+01
          0                 3           2             7   13     1      -0.1724502982E-02       7   13    1        -0.9628142923E-01      0.1791979552E+00
          0                 4           2             7   13     1       0.1173771013E-03       7   13    1         0.6730329691E-02      0.1311618369E-01
          0                 5           1             4    7     1      -0.5167854502E-04       4    7    1        -0.2851511093E-02      0.6986789547E-02

    ------------------------------------------------
       NWT REQUIRED            5 OUTER ITERATIONS 
       AND A TOTAL OF          9 INNER ITERATIONS.
    ------------------------------------------------

 NO OUTPUT CONTROL FOR STRESS PERIOD   32   TIME STEP   11
 
 SOLVING FOR HEAD 
                                                   Max.-Head-Change                         Max.-Flux-Residual
  Residual-Control   Outer-Iter.   Inner-Iter.     Column Row Layer    Maximum-Head-Change  Column Row Layer    Maximum-Flux-Residual          L2-NORM 
          0                 1           2             4    7     1      -0.2349050850E-01       4    7    1        -0.1231522305E+01      0.3072294405E+01
          0                 2           2             4   13     1      -0.2081632188E-01       4   13    1        -0.1223599427E+01      0.2135161625E+01
          0                 3           2             7   13     1      -0.1716430744E-02       7   13    1        -0.9583201118E-01      0.1803029612E+00
          0                 4           2             7   13     1       0.1168271924E-03       7   13    1         0.6698846785E-02      0.1498054411E-01
          0                 5           1             4    7     1      -0.4765689350E-04       4    7    1        -0.2629611678E-02      0.6443423002E-02

    ------------------------------------------------
       NWT REQUIRED            5 OUTER ITERATIONS 
       AND A TOTAL OF          9 INNER ITERATIONS.
    ------------------------------------------------

 NO OUTPUT CONTROL FOR STRESS PERIOD   32   TIME STEP   12
 
 SOLVING FOR HEAD 
                                                   Max.-Head-Change                         Max.-Flux-Residual
  Residual-Control   Outer-Iter.   Inner-Iter.     Column Row Layer    Maximum-Head-Change  Column Row Layer    Maximum-Flux-Residual          L2-NORM 
          0                 1           2             4    7     1      -0.2327012135E-01       4    7    1        -0.1220279351E+01      0.3055222607E+01
          0                 2           2             4   13     1      -0.2088822658E-01       4   13    1        -0.1227829563E+01      0.2141658058E+01
          0                 3           2             7   13     1      -0.1708556626E-02       7   13    1        -0.9539362402E-01      0.1808284435E+00
          0                 4           2             7   13     1       0.1162927269E-03       7   13    1         0.6668246909E-02      0.1580480397E-01
          0                 5           1             4    7     1      -0.5133814149E-04       4    7    1        -0.2832732979E-02      0.6940276064E-02

    ------------------------------------------------
       NWT REQUIRED            5 OUTER ITERATIONS 
       AND A TOTAL OF          9 INNER ITERATIONS.
    ------------------------------------------------

 NO OUTPUT CONTROL FOR STRESS PERIOD   32   TIME STEP   13
 
 SOLVING FOR HEAD 
                                                   Max.-Head-Change                         Max.-Flux-Residual
  Residual-Control   Outer-Iter.   Inner-Iter.     Column Row Layer    Maximum-Head-Change  Column Row Layer    Maximum-Flux-Residual          L2-NORM 
          0                 1           2             4    7     1      -0.2304554309E-01       4    7    1        -0.1208789254E+01      0.3038923607E+01
          0                 2           2             4   13     1      -0.2095382690E-01       4   13    1        -0.1231687505E+01      0.2148040106E+01
          0                 3           2             7   13     1      -0.1700876382E-02       7   13    1        -0.9496603163E-01      0.1808965660E+00
          0                 4           2             7   13     1       0.1157693685E-03       7   13    1         0.6638285109E-02      0.1583058734E-01
          0                 5           1             4    7     1      -0.5143134072E-04       4    7    1        -0.2837855802E-02      0.6952509198E-02

    ------------------------------------------------
       NWT REQUIRED            5 OUTER ITERATIONS 
       AND A TOTAL OF          9 INNER ITERATIONS.
    ------------------------------------------------

 NO OUTPUT CONTROL FOR STRESS PERIOD   32   TIME STEP   14
 
 SOLVING FOR HEAD 
                                                   Max.-Head-Change                         Max.-Flux-Residual
  Residual-Control   Outer-Iter.   Inner-Iter.     Column Row Layer    Maximum-Head-Change  Column Row Layer    Maximum-Flux-Residual          L2-NORM 
          0                 1           2             4    7     1      -0.2281833951E-01       4    7    1        -0.1197123472E+01      0.3023504112E+01
          0                 2           2             4   13     1      -0.2101369950E-01       4   13    1        -0.1235207418E+01      0.2153975986E+01
          0                 3           2             7   13     1      -0.1693380824E-02       7   13    1        -0.9454872341E-01      0.1809530309E+00
          0                 4           2             7   13     1       0.1152590941E-03       7   13    1         0.6609070602E-02      0.1585534425E-01
          0                 5           1             4    7     1      -0.5152518395E-04       4    7    1        -0.2843034473E-02      0.6965000950E-02

    ------------------------------------------------
       NWT REQUIRED            5 OUTER ITERATIONS 
       AND A TOTAL OF          9 INNER ITERATIONS.
    ------------------------------------------------

 NO OUTPUT CONTROL FOR STRESS PERIOD   32   TIME STEP   15
 
 SOLVING FOR HEAD 
                                                   Max.-Head-Change                         Max.-Flux-Residual
  Residual-Control   Outer-Iter.   Inner-Iter.     Column Row Layer    Maximum-Head-Change  Column Row Layer    Maximum-Flux-Residual          L2-NORM 
          0                 1           2             4    7     1      -0.2258869704E-01       4    7    1        -0.1185308865E+01      0.3008859418E+01
          0                 2           2             4   13     1      -0.2106837578E-01       4   13    1        -0.1238420744E+01      0.2159466079E+01
          0                 3           2             7   13     1      -0.1686064975E-02       7   13    1        -0.9414142036E-01      0.1809907389E+00
          0                 4           2             7   13     1       0.1147623854E-03       7   13    1         0.6580632113E-02      0.1588063282E-01
          0                 5           1             4    7     1      -0.5160765504E-04       4    7    1        -0.2847585778E-02      0.6975947972E-02

    ------------------------------------------------
       NWT REQUIRED            5 OUTER ITERATIONS 
       AND A TOTAL OF          9 INNER ITERATIONS.
    ------------------------------------------------

 NO OUTPUT CONTROL FOR STRESS PERIOD   32   TIME STEP   16
 
 SOLVING FOR HEAD 
                                                   Max.-Head-Change                         Max.-Flux-Residual
  Residual-Control   Outer-Iter.   Inner-Iter.     Column Row Layer    Maximum-Head-Change  Column Row Layer    Maximum-Flux-Residual          L2-NORM 
          0                 1           2             4    7     1      -0.2235743492E-01       4    7    1        -0.1173386586E+01      0.2994802268E+01
          0                 2           2             4   13     1      -0.2111837283E-01       4   13    1        -0.1241358063E+01      0.2164557446E+01
          0                 3           2             7   13     1      -0.1678923089E-02       7   13    1        -0.9374380801E-01      0.1810168440E+00
          0                 4           2             7   13     1       0.1142751929E-03       7   13    1         0.6552742009E-02      0.1590451814E-01
          0                 5           1             4    7     1      -0.5171432077E-04       4    7    1        -0.2853471735E-02      0.6994814851E-02

    ------------------------------------------------
       NWT REQUIRED            5 OUTER ITERATIONS 
       AND A TOTAL OF          9 INNER ITERATIONS.
    ------------------------------------------------

 NO OUTPUT CONTROL FOR STRESS PERIOD   32   TIME STEP   17
 
 SOLVING FOR HEAD 
                                                   Max.-Head-Change                         Max.-Flux-Residual
  Residual-Control   Outer-Iter.   Inner-Iter.     Column Row Layer    Maximum-Head-Change  Column Row Layer    Maximum-Flux-Residual          L2-NORM 
          0                 1           2             4    7     1      -0.2212467926E-01       4    7    1        -0.1161364940E+01      0.2981235486E+01
          0                 2           2             4   13     1      -0.2116408101E-01       4   13    1        -0.1244042401E+01      0.2169280233E+01
          0                 3           2             7   13     1      -0.1671948797E-02       7   13    1        -0.9335552287E-01      0.1810278212E+00
          0                 4           2             7   13     1       0.1138000560E-03       7   13    1         0.6525539761E-02      0.1592895183E-01
          0                 5           1             4    7     1      -0.5179460023E-04       4    7    1        -0.2857901542E-02      0.7000837065E-02

    ------------------------------------------------
       NWT REQUIRED            5 OUTER ITERATIONS 
       AND A TOTAL OF          9 INNER ITERATIONS.
    ------------------------------------------------

 NO OUTPUT CONTROL FOR STRESS PERIOD   32   TIME STEP   18
 
 SOLVING FOR HEAD 
                                                   Max.-Head-Change                         Max.-Flux-Residual
  Residual-Control   Outer-Iter.   Inner-Iter.     Column Row Layer    Maximum-Head-Change  Column Row Layer    Maximum-Flux-Residual          L2-NORM 
          0                 1           2             4    7     1      -0.2189111682E-01       4    7    1        -0.1149281244E+01      0.2968114629E+01
          0                 2           2             4   13     1      -0.2120594170E-01       4   13    1        -0.1246499999E+01      0.2173661150E+01
          0                 3           2             7   13     1      -0.1665140146E-02       7   13    1        -0.9297646353E-01      0.1810294924E+00
          0                 4           2             7   13     1       0.1133372748E-03       7   13    1         0.6499043692E-02      0.1595279714E-01
          0                 5           1             4    7     1      -0.5188829624E-04       4    7    1        -0.2863071382E-02      0.7013374249E-02

    ------------------------------------------------
       NWT REQUIRED            5 OUTER ITERATIONS 
       AND A TOTAL OF          9 INNER ITERATIONS.
    ------------------------------------------------

 NO OUTPUT CONTROL FOR STRESS PERIOD   32   TIME STEP   19
 
 SOLVING FOR HEAD 
                                                   Max.-Head-Change                         Max.-Flux-Residual
  Residual-Control   Outer-Iter.   Inner-Iter.     Column Row Layer    Maximum-Head-Change  Column Row Layer    Maximum-Flux-Residual          L2-NORM 
          0                 1           2             4    7     1      -0.2165652929E-01       4    7    1        -0.1137124951E+01      0.2955354771E+01
          0                 2           2             4   13     1      -0.2124431588E-01       4   13    1        -0.1248752105E+01      0.2177728769E+01
          0                 3           2             7   13     1      -0.1658485446E-02       7   13    1        -0.9260597670E-01      0.1810184038E+00
          0                 4           2             7   13     1       0.1128838332E-03       7   13    1         0.6473084702E-02      0.1597633952E-01
          0                 5           1             4    7     1      -0.5198151417E-04       4    7    1        -0.2868214577E-02      0.7025822650E-02

    ------------------------------------------------
       NWT REQUIRED            5 OUTER ITERATIONS 
       AND A TOTAL OF          9 INNER ITERATIONS.
    ------------------------------------------------

 NO OUTPUT CONTROL FOR STRESS PERIOD   32   TIME STEP   20
 
 SOLVING FOR HEAD 
                                                   Max.-Head-Change                         Max.-Flux-Residual
  Residual-Control   Outer-Iter.   Inner-Iter.     Column Row Layer    Maximum-Head-Change  Column Row Layer    Maximum-Flux-Residual          L2-NORM 
          0                 1           2             4    7     1      -0.2142184019E-01       4    7    1        -0.1124946152E+01      0.2942944883E+01
          0                 2           2             4   13     1      -0.2127946923E-01       4   13    1        -0.1250814445E+01      0.2181505210E+01
          0                 3           2             7   13     1      -0.1651985671E-02       7   13    1        -0.9224412437E-01      0.1809994789E+00
          0                 4           2             7   13     1       0.1124417679E-03       7   13    1         0.6447777661E-02      0.1600000437E-01
          0                 5           1             4    7     1      -0.5207475458E-04       4    7    1        -0.2873358802E-02      0.7038281075E-02

    ------------------------------------------------
       NWT REQUIRED            5 OUTER ITERATIONS 
       AND A TOTAL OF          9 INNER ITERATIONS.
    ------------------------------------------------

 NO OUTPUT CONTROL FOR STRESS PERIOD   32   TIME STEP   21
 
 SOLVING FOR HEAD 
                                                   Max.-Head-Change                         Max.-Flux-Residual
  Residual-Control   Outer-Iter.   Inner-Iter.     Column Row Layer    Maximum-Head-Change  Column Row Layer    Maximum-Flux-Residual          L2-NORM 
          0                 1           2             4    7     1      -0.2118707454E-01       4    7    1        -0.1112747421E+01      0.2930840679E+01
          0                 2           2             4   13     1      -0.2131180655E-01       4   13    1        -0.1252710934E+01      0.2185016679E+01
          0                 3           2             7   13     1      -0.1645634278E-02       7   13    1        -0.9189051888E-01      0.1809734830E+00
          0                 4           2             7   13     1       0.1120093095E-03       7   13    1         0.6423018672E-02      0.1602387282E-01
          0                 5           1             4    7     1      -0.5215719064E-04       4    7    1        -0.2877906688E-02      0.7049311724E-02

    ------------------------------------------------
       NWT REQUIRED            5 OUTER ITERATIONS 
       AND A TOTAL OF          9 INNER ITERATIONS.
    ------------------------------------------------

 NO OUTPUT CONTROL FOR STRESS PERIOD   32   TIME STEP   22
 
 SOLVING FOR HEAD 
                                                   Max.-Head-Change                         Max.-Flux-Residual
  Residual-Control   Outer-Iter.   Inner-Iter.     Column Row Layer    Maximum-Head-Change  Column Row Layer    Maximum-Flux-Residual          L2-NORM 
          0                 1           2             4    7     1      -0.2095275626E-01       4    7    1        -0.1100557721E+01      0.2919010173E+01
          0                 2           2             4   13     1      -0.2134141086E-01       4   13    1        -0.1254446447E+01      0.2188273921E+01
          0                 3           2             7   13     1      -0.1639426306E-02       7   13    1        -0.9154490719E-01      0.1809361467E+00
          0                 4           2             7   13     1       0.1115862551E-03       7   13    1         0.6398799575E-02      0.1604717172E-01
          0                 5           1             4    7     1      -0.5226123587E-04       4    7    1        -0.2883646709E-02      0.7063273967E-02

    ------------------------------------------------
       NWT REQUIRED            5 OUTER ITERATIONS 
       AND A TOTAL OF          9 INNER ITERATIONS.
    ------------------------------------------------

 NO OUTPUT CONTROL FOR STRESS PERIOD   32   TIME STEP   23
 
 SOLVING FOR HEAD 
                                                   Max.-Head-Change                         Max.-Flux-Residual
  Residual-Control   Outer-Iter.   Inner-Iter.     Column Row Layer    Maximum-Head-Change  Column Row Layer    Maximum-Flux-Residual          L2-NORM 
          0                 1           2             4    7     1      -0.2071857710E-01       4    7    1        -0.1088360803E+01      0.2907431891E+01
          0                 2           2             4   13     1      -0.2136871148E-01       4   13    1        -0.1256046383E+01      0.2191312336E+01
          0                 3           2             7   13     1      -0.1633355635E-02       7   13    1        -0.9120694158E-01      0.1808963870E+00
          0                 4           2             7   13     1       0.1111736356E-03       7   13    1         0.6375176754E-02      0.1607187810E-01
          0                 5           1             4    7     1      -0.5235405334E-04       4    7    1        -0.2888767023E-02      0.7075714165E-02

    ------------------------------------------------
       NWT REQUIRED            5 OUTER ITERATIONS 
       AND A TOTAL OF          9 INNER ITERATIONS.
    ------------------------------------------------

 NO OUTPUT CONTROL FOR STRESS PERIOD   32   TIME STEP   24
 
 SOLVING FOR HEAD 
                                                   Max.-Head-Change                         Max.-Flux-Residual
  Residual-Control   Outer-Iter.   Inner-Iter.     Column Row Layer    Maximum-Head-Change  Column Row Layer    Maximum-Flux-Residual          L2-NORM 
          0                 1           2             4    7     1      -0.2048538716E-01       4    7    1        -0.1076203281E+01      0.2896087494E+01
          0                 2           2             4   13     1      -0.2139380551E-01       4   13    1        -0.1257516474E+01      0.2194135723E+01
          0                 3           2             7   13     1      -0.1627421161E-02       7   13    1        -0.9087655656E-01      0.1808475698E+00
          0                 4           2             7   13     1       0.1107703022E-03       7   13    1         0.6352085912E-02      0.1609623272E-01
          0                 5           1             4    7     1      -0.5244690370E-04       4    7    1        -0.2893889010E-02      0.7088197889E-02

    ------------------------------------------------
       NWT REQUIRED            5 OUTER ITERATIONS 
       AND A TOTAL OF          9 INNER ITERATIONS.
    ------------------------------------------------

 NO OUTPUT CONTROL FOR STRESS PERIOD   32   TIME STEP   25
 
 SOLVING FOR HEAD 
                                                   Max.-Head-Change                         Max.-Flux-Residual
  Residual-Control   Outer-Iter.   Inner-Iter.     Column Row Layer    Maximum-Head-Change  Column Row Layer    Maximum-Flux-Residual          L2-NORM 
          0                 1           2             4    7     1      -0.2025338036E-01       4   13    1         0.1070878045E+01      0.2884971121E+01
          0                 2           2             4   13     1      -0.2141692447E-01       4   13    1        -0.1258870334E+01      0.2196763888E+01
          0                 3           2             7   13     1      -0.1621614682E-02       7   13    1        -0.9055330181E-01      0.1807946448E+00
          0                 4           2             7   13     1       0.1103745558E-03       7   13    1         0.6329437543E-02      0.1611876270E-01
          0                 5           1             4    7     1      -0.5255103390E-04       4    7    1        -0.2899633253E-02      0.7102180676E-02

    ------------------------------------------------
       NWT REQUIRED            5 OUTER ITERATIONS 
       AND A TOTAL OF          9 INNER ITERATIONS.
    ------------------------------------------------

 NO OUTPUT CONTROL FOR STRESS PERIOD   32   TIME STEP   26
 
 SOLVING FOR HEAD 
                                                   Max.-Head-Change                         Max.-Flux-Residual
  Residual-Control   Outer-Iter.   Inner-Iter.     Column Row Layer    Maximum-Head-Change  Column Row Layer    Maximum-Flux-Residual          L2-NORM 
          0                 1           2             4    7     1      -0.2002220409E-01       4   13    1         0.1077664835E+01      0.2874052286E+01
          0                 2           2             4   13     1      -0.2143826240E-01       4   13    1        -0.1260119461E+01      0.2199211942E+01
          0                 3           2             7   13     1      -0.1616048257E-02       7   13    1        -0.9024341681E-01      0.1807411308E+00
          0                 4           2             7   13     1       0.1099960560E-03       7   13    1         0.6307763036E-02      0.1614718856E-01
          0                 5           1             4    7     1      -0.5264379409E-04       4    7    1        -0.2904750078E-02      0.7114760617E-02

    ------------------------------------------------
       NWT REQUIRED            5 OUTER ITERATIONS 
       AND A TOTAL OF          9 INNER ITERATIONS.
    ------------------------------------------------

 NO OUTPUT CONTROL FOR STRESS PERIOD   32   TIME STEP   27
 
 SOLVING FOR HEAD 
                                                   Max.-Head-Change                         Max.-Flux-Residual
  Residual-Control   Outer-Iter.   Inner-Iter.     Column Row Layer    Maximum-Head-Change  Column Row Layer    Maximum-Flux-Residual          L2-NORM 
          0                 1           2             4    7     1      -0.1979260992E-01       4   13    1         0.1083876405E+01      0.2863335067E+01
          0                 2           2             4   13     1      -0.2145795950E-01       4   13    1        -0.1261272125E+01      0.2201493918E+01
          0                 3           2             7   13     1      -0.1610383074E-02       7   13    1        -0.8992802759E-01      0.1806753418E+00
          0                 4           2             7   13     1       0.1096104270E-03       7   13    1         0.6285686241E-02      0.1616860882E-01
          0                 5           1             4    7     1      -0.5274920234E-04       4    7    1        -0.2910564798E-02      0.7128848948E-02

    ------------------------------------------------
       NWT REQUIRED            5 OUTER ITERATIONS 
       AND A TOTAL OF          9 INNER ITERATIONS.
    ------------------------------------------------

 NO OUTPUT CONTROL FOR STRESS PERIOD   32   TIME STEP   28
 
 SOLVING FOR HEAD 
                                                   Max.-Head-Change                         Max.-Flux-Residual
  Residual-Control   Outer-Iter.   Inner-Iter.     Column Row Layer    Maximum-Head-Change  Column Row Layer    Maximum-Flux-Residual          L2-NORM 
          0                 1           2             4    7     1      -0.1956444840E-01       4   13    1         0.1089571785E+01      0.2852798652E+01
          0                 2           2             4   13     1      -0.2147618459E-01       4   13    1        -0.1262338268E+01      0.2203624023E+01
          0                 3           2             7   13     1      -0.1604943867E-02       7   13    1        -0.8962522341E-01      0.1806113865E+00
          0                 4           2             7   13     1       0.1092395937E-03       7   13    1         0.6264458082E-02      0.1619268088E-01
          0                 5           1             4    7     1      -0.5285282013E-04       4    7    1        -0.2916280620E-02      0.7142803860E-02

    ------------------------------------------------
       NWT REQUIRED            5 OUTER ITERATIONS 
       AND A TOTAL OF          9 INNER ITERATIONS.
    ------------------------------------------------

 NO OUTPUT CONTROL FOR STRESS PERIOD   32   TIME STEP   29
 
 SOLVING FOR HEAD 
                                                   Max.-Head-Change                         Max.-Flux-Residual
  Residual-Control   Outer-Iter.   Inner-Iter.     Column Row Layer    Maximum-Head-Change  Column Row Layer    Maximum-Flux-Residual          L2-NORM 
          0                 1           2             4    7     1      -0.1933816901E-01       4   13    1         0.1094792651E+01      0.2842461569E+01
          0                 2           2             4   13     1      -0.2149303706E-01       4   13    1        -0.1263323757E+01      0.2205609896E+01
          0                 3           2             7   13     1      -0.1599620152E-02       4   13    1         0.8965834105E-01      0.1805419933E+00
          0                 4           2             7   13     1       0.1088738332E-03       7   13    1         0.6243570759E-02      0.1621712097E-01
          0                 5           1             4    7     1      -0.5294576327E-04       4    7    1        -0.2921407349E-02      0.7155331931E-02

    ------------------------------------------------
       NWT REQUIRED            5 OUTER ITERATIONS 
       AND A TOTAL OF          9 INNER ITERATIONS.
    ------------------------------------------------

 NO OUTPUT CONTROL FOR STRESS PERIOD   32   TIME STEP   30



 STREAM LISTING     PERIOD     32   STEP       30

 LAYER ROW COL. STREAM  RCH.  FLOW INTO     FLOW TO   FLOW OUT OF   OVRLND.     DIRECT     STREAM       STREAM     STREAM     STREAM   STREAMBED  STREAMBED
                SEG.NO.  NO.  STRM. RCH.    AQUIFER    STRM. RCH.    RUNOFF     PRECIP       ET          HEAD       DEPTH      WIDTH   CONDCTNC.   GRADIENT

   1    1    1     1     1    5.6248E+01  3.5874E-01   5.5890E+01  0.000E+00  0.000E+00  0.000E+00  1.09453E+03  1.479E+00  1.780E+01  8.009E-02  1.493E+00
   1    2    2     1     2    5.5890E+01  5.5549E-01   5.5334E+01  0.000E+00  0.000E+00  0.000E+00  1.08953E+03  1.473E+00  1.774E+01  1.242E-01  1.491E+00
   1    3    3     1     3    5.5334E+01  4.7367E-01   5.4860E+01  0.000E+00  0.000E+00  0.000E+00  1.08389E+03  1.467E+00  1.767E+01  1.060E-01  1.489E+00
   1    3    4     1     4    5.4860E+01  4.3612E-01   5.4424E+01  0.000E+00  0.000E+00  0.000E+00  1.07887E+03  1.461E+00  1.762E+01  9.777E-02  1.487E+00
   1    4    5     2     1    5.2424E+01  3.8056E-01   5.2044E+01  0.000E+00  0.000E+00  0.000E+00  1.07381E+03  1.879E+00  1.200E+01  7.800E-02  1.626E+00
   1    5    6     2     2    5.2044E+01  2.9230E-01   5.1751E+01  0.000E+00  0.000E+00  0.000E+00  1.06838E+03  1.872E+00  1.200E+01  6.000E-02  1.624E+00
   1    6    6     2     3    5.1751E+01  2.9192E-01   5.1459E+01  0.000E+00  0.000E+00  0.000E+00  1.06366E+03  1.865E+00  1.200E+01  6.000E-02  1.622E+00
   1    7    6     2     4    5.1459E+01  2.9154E-01   5.1168E+01  0.000E+00  0.000E+00  0.000E+00  1.05893E+03  1.859E+00  1.200E+01  6.000E-02  1.620E+00
   1    8    6     2     5    5.1168E+01  2.9116E-01   5.0877E+01  0.000E+00  0.000E+00  0.000E+00  1.05421E+03  1.853E+00  1.200E+01  6.000E-02  1.618E+00
   1    3    5     3     1    2.0000E+00  2.8252E-01   1.7175E+00  0.000E+00  0.000E+00  0.000E+00  1.07555E+03  1.909E+00  9.636E+00  7.227E-02  1.955E+00
   1    3    6     3     2    1.7175E+00  2.4905E-01   1.4684E+00  0.000E+00  0.000E+00  0.000E+00  1.07264E+03  1.727E+00  8.909E+00  6.682E-02  1.864E+00
   1    3    7     3     3    1.4684E+00  1.9718E-01   1.2712E+00  0.000E+00  0.000E+00  0.000E+00  1.06987E+03  1.555E+00  8.218E+00  5.547E-02  1.777E+00
   1    4    8     3     4    1.2712E+00  2.2567E-01   1.0456E+00  0.000E+00  0.000E+00  0.000E+00  1.06682E+03  1.364E+00  7.455E+00  6.709E-02  1.682E+00
   1    5    8     3     5    1.0456E+00  1.5790E-01   8.8768E-01  0.000E+00  0.000E+00  0.000E+00  1.06362E+03  1.164E+00  6.655E+00  4.991E-02  1.582E+00
   1    6    8     3     6    8.8768E-01  5.5980E-02   8.3170E-01  0.000E+00  0.000E+00  0.000E+00  1.06158E+03  1.036E+00  6.145E+00  1.844E-02  1.518E+00
   1    5   10     4     1    1.0000E+01  9.0919E-02   9.9091E+00  0.000E+00  0.000E+00  0.000E+00  1.07836E+03  6.368E-01  1.000E+01  2.500E-02  1.212E+00
   1    5    9     4     2    9.9091E+00  1.8158E-01   9.7275E+00  0.000E+00  0.000E+00  0.000E+00  1.07154E+03  6.315E-01  1.000E+01  5.000E-02  1.211E+00
   1    6    8     4     3    9.7275E+00  1.2689E-01   9.6006E+00  0.000E+00  0.000E+00  0.000E+00  1.06381E+03  6.256E-01  1.000E+01  3.500E-02  1.209E+00
   1    6    8     5     1    1.0432E+01  2.2686E-01   1.0205E+01  0.000E+00  0.000E+00  0.000E+00  1.05868E+03  6.790E-01  1.542E+01  6.166E-02  1.226E+00
   1    7    7     5     2    1.0205E+01  2.7894E-01   9.9265E+00  0.000E+00  0.000E+00  0.000E+00  1.05417E+03  6.732E-01  1.519E+01  7.594E-02  1.224E+00
   1    8    7     5     3    9.9265E+00  1.9221E-01   9.7343E+00  0.000E+00  0.000E+00  0.000E+00  1.04992E+03  6.676E-01  1.497E+01  5.241E-02  1.223E+00
   1    8    6     5     4    9.7343E+00  1.3577E-01   9.5985E+00  0.000E+00  0.000E+00  0.000E+00  1.04691E+03  6.637E-01  1.482E+01  3.706E-02  1.221E+00
   1    9    6     6     1    9.5985E+00  2.2097E-01   9.3776E+00  0.000E+00  0.000E+00  0.000E+00  1.04341E+03  6.828E-01  1.200E+01  6.000E-02  1.228E+00
   1   10    7     6     2    9.3776E+00  2.2039E-01   9.1572E+00  0.000E+00  0.000E+00  0.000E+00  1.03885E+03  6.732E-01  1.200E+01  6.000E-02  1.224E+00
   1   11    7     6     3    9.1572E+00  2.1981E-01   8.9374E+00  0.000E+00  0.000E+00  0.000E+00  1.03430E+03  6.636E-01  1.200E+01  6.000E-02  1.221E+00
   1   12    7     6     4    8.9374E+00  2.1923E-01   8.7181E+00  0.000E+00  0.000E+00  0.000E+00  1.02974E+03  6.539E-01  1.200E+01  6.000E-02  1.218E+00
   1   13    7     6     5    8.7181E+00 -1.1865E-01   8.8368E+00  0.000E+00  0.000E+00  0.000E+00  1.02656E+03  6.516E-01  1.200E+01  2.400E-01 -1.648E-01
   1   14    9     7     1    1.5000E+02  1.3392E+00   1.4866E+02  0.000E+00  0.000E+00  0.000E+00  1.03987E+03  2.288E+00  5.529E+01  5.593E-01  7.981E-01
   1   13    8     7     2    1.4866E+02  1.8352E+00   1.4683E+02  0.000E+00  0.000E+00  0.000E+00  1.03478E+03  2.279E+00  5.526E+01  6.148E-01  9.950E-01
   1   13    7     7     3    1.4683E+02  1.4714E+00   1.4535E+02  0.000E+00  0.000E+00  0.000E+00  1.02969E+03  2.270E+00  5.522E+01  5.585E-01  8.782E-01
   1   13    6     8     1    1.5419E+02  8.2688E-01   1.5336E+02  0.000E+00  0.000E+00  0.000E+00  1.02472E+03  2.843E+00  4.123E+01  4.201E-01  6.561E-01
   1   13    5     8     2    1.5336E+02  1.0279E-01   1.5326E+02  0.000E+00  0.000E+00  0.000E+00  1.01847E+03  2.840E+00  4.118E+01  4.196E-01  8.165E-02
   1   13    4     8     3    1.5326E+02 -2.6671E+00   1.5593E+02  0.000E+00  0.000E+00  0.000E+00  1.01222E+03  2.849E+00  4.131E+01  4.210E+00 -2.112E-01
   1   13    3     8     4    1.5593E+02 -3.7831E+00   1.5971E+02  0.000E+00  0.000E+00  0.000E+00  1.00600E+03  2.871E+00  4.163E+01  4.242E+00 -2.973E-01
   1   13    2     8     5    1.5971E+02 -2.6849E+00   1.6240E+02  0.000E+00  0.000E+00  0.000E+00  9.99768E+02  2.893E+00  4.195E+01  4.275E+00 -2.094E-01
   1   13    1     8     6    1.6240E+02 -2.0936E+00   1.6449E+02  0.000E+00  0.000E+00  0.000E+00  9.94784E+02  2.909E+00  4.218E+01  2.579E+00 -2.706E-01
   1    8    6     9     1    5.0877E+01  0.0000E+00   5.0877E+01  0.000E+00  0.000E+00  0.000E+00  1.08476E+03  6.014E+00  4.000E+00  0.000E+00  3.005E+00
   1    8    5     9     2    5.0877E+01  0.0000E+00   5.0877E+01  0.000E+00  0.000E+00  0.000E+00  1.08426E+03  6.014E+00  4.000E+00  0.000E+00  3.005E+00





UNSATURATED ZONE PACKAGE VOLUMETRIC BUDGET FOR  TIME STEP    30 STRESS PERIOD   32
  ------------------------------------------------------------------------------



     CUMULATIVE VOLUMES      L**3       RATES FOR THIS TIME STEP      L**3/T
     ------------------                 ------------------------

           IN:                                      IN:
           ---                                      ---
        INFILTRATION =  1392453984.8591          INFILTRATION =          64.2136

          OUT:                                     OUT:
          ----                                     ----
              UZF ET =  1297436240.7776                UZF ET =          64.0981
        UZF RECHARGE =     1188922.5148          UZF RECHARGE =       0.0000E+00

            IN - OUT =    93828821.5667              IN - OUT =           0.1156

          STORAGE:                                 STORAGE:
          --------                                 --------
      STORAGE CHANGE =    93829794.2695        STORAGE CHANGE =           0.1156

 PERCENT DISCREPANCY IS DIFFERENCE BETWEEN IN-OUT MINUS CHANGE IN STORAGE
 DIVIDED BY THE AVERAGE OF IN AND OUT TIMES 100

 PERCENT DISCREPANCY =          -0.00     PERCENT DISCREPANCY =           0.00






1
  VOLUMETRIC BUDGET FOR AGRICULTURAL FIELDS AT TIME STEP   30, STRESS PERIOD  32
  ------------------------------------------------------------------------------

     CUMULATIVE VOLUMES      L**3       RATES FOR THIS TIME STEP      L**3/T
     ------------------                 ------------------------

           IN:                                      IN:
           ---                                      ---
               AG WELLS  =   198778160.0000                 AG WELLS  =           8.9283
      DIVERSION SEGMENTS =   834243584.0000        DIVERSION SEGMENTS =          50.8768
           GW IRRIGATION =           0.0000             GW IRRIGATION =           0.0000
           SW IRRIGATION =           0.0000             SW IRRIGATION =           0.0000
        SYSTEM LOSSES GW =           0.0000          SYSTEM LOSSES GW =           0.0000
        SYSTEM LOSSES SW =           0.0000          SYSTEM LOSSES SW =           0.0000

                TOTAL IN =  1033021760.0000                  TOTAL IN =          59.8051

          OUT:                                     OUT:
          ----                                     ----
               AG WELLS  =           0.0000                 AG WELLS  =           0.0000
      DIVERSION SEGMENTS =           0.0000        DIVERSION SEGMENTS =           0.0000
           GW IRRIGATION =   198778160.0000             GW IRRIGATION =           8.9283
           SW IRRIGATION =   834260480.0000             SW IRRIGATION =          50.8778
        SYSTEM LOSSES GW =           0.0000          SYSTEM LOSSES GW =           0.0000
        SYSTEM LOSSES SW =           0.0000          SYSTEM LOSSES SW =           0.0000

               TOTAL OUT =  1033038656.0000                 TOTAL OUT =          59.8061

                IN - OUT =      -16896.0000                  IN - OUT =      -1.0147E-03

     PERCENT DISCREPANCY =          -0.00         PERCENT DISCREPANCY =          -0.00



1
  VOLUMETRIC BUDGET FOR ENTIRE MODEL AT END OF TIME STEP   30, STRESS PERIOD  32
  ------------------------------------------------------------------------------

     CUMULATIVE VOLUMES      L**3       RATES FOR THIS TIME STEP      L**3/T
     ------------------                 ------------------------

           IN:                                      IN:
           ---                                      ---
             STORAGE     =   334675936.0000               STORAGE     =           8.7678
       CONSTANT HEAD     =           0.0000         CONSTANT HEAD     =           0.0000
     HEAD DEP BOUNDS     =    23325738.0000       HEAD DEP BOUNDS     =           0.2860
      STREAM LEAKAGE     =   975293440.0000        STREAM LEAKAGE     =          12.2288
        UZF RECHARGE     =     1188922.5000          UZF RECHARGE     =           0.0000
               GW ET     =           0.0000                 GW ET     =           0.0000
     SURFACE LEAKAGE     =           0.0000       SURFACE LEAKAGE     =           0.0000
           AG WELLS      =           0.0000             AG WELLS      =           0.0000

                TOTAL IN =  1334483968.0000                  TOTAL IN =          21.2825

          OUT:                                     OUT:
          ----                                     ----
             STORAGE     =   223695312.0000               STORAGE     =           0.7176
       CONSTANT HEAD     =           0.0000         CONSTANT HEAD     =           0.0000
     HEAD DEP BOUNDS     =    23741226.0000       HEAD DEP BOUNDS     =           0.2886
      STREAM LEAKAGE     =   884934016.0000        STREAM LEAKAGE     =          11.3473
        UZF RECHARGE     =           0.0000          UZF RECHARGE     =           0.0000
               GW ET     =     3295915.0000                 GW ET     =           0.0000
     SURFACE LEAKAGE     =           0.0000       SURFACE LEAKAGE     =           0.0000
           AG WELLS      =   198778160.0000             AG WELLS      =           8.9283

               TOTAL OUT =  1334444544.0000                 TOTAL OUT =          21.2818

                IN - OUT =       39424.0000                  IN - OUT =       7.2479E-04

     PERCENT DISCREPANCY =           0.00         PERCENT DISCREPANCY =           0.00






         TIME SUMMARY AT END OF TIME STEP   30 IN STRESS PERIOD   32
                    SECONDS     MINUTES      HOURS       DAYS        YEARS
                    -----------------------------------------------------------
   TIME STEP LENGTH  87667.      1461.1      24.352      1.0147     2.77799E-03
 STRESS PERIOD TIME 2.63000E+06  43833.      730.56      30.440     8.33397E-02
         TOTAL TIME 8.16164E+07 1.36027E+06  22671.      944.63      2.5863    
1
1
                            STRESS PERIOD NO.   33, LENGTH =   2630000.    
                            -----------------------------------------------

                              NUMBER OF TIME STEPS =    30

                               MULTIPLIER FOR DELT =     1.000

                            INITIAL TIME STEP SIZE =   87666.66    

 REUSING NON-PARAMETER GHB CELLS FROM LAST STRESS PERIOD

      2 GHB CELLS

 REUSING STREAM SEGMENT DATA FROM LAST STRESS PERIOD



            AREAL INFILTRATION RATE
 READING ON UNIT   19 WITH FORMAT: (10F4.0)            

            1           2           3           4           5           6           7           8           9          10
 ........................................................................................................................
   1   1.2000E-09   0.000       0.000       0.000       0.000       0.000       0.000       0.000       0.000       0.000    
   2   2.1000E-09  2.0000E-09  8.0000E-10  8.5000E-09   0.000       0.000       0.000       0.000       0.000       0.000    
   3   5.0000E-10  1.1000E-09  8.8000E-09  5.5000E-09   0.000       0.000       0.000       0.000       0.000       0.000    
   4   8.5000E-09  1.1000E-09  1.1000E-09  1.1000E-09  2.0000E-09   0.000       0.000       0.000       0.000       0.000    
   5   8.5000E-09  1.1000E-09  1.1000E-09  1.1000E-09  1.1000E-09   0.000       0.000       0.000       0.000       0.000    
   6   8.5000E-09  5.2000E-09  2.1000E-09  1.1000E-09  1.5000E-09   0.000       0.000       0.000       0.000       0.000    
   7   8.5000E-09  5.2000E-09  2.1000E-09  1.2000E-09  2.0000E-09   0.000       0.000       0.000       0.000       0.000    
   8   5.0000E-10  5.2000E-09  2.1000E-09  1.2000E-09  5.0000E-09   0.000       0.000       0.000       0.000       0.000    
   9   5.0000E-10  5.2000E-09  2.1000E-09  1.2000E-09  5.0000E-09   0.000       0.000       0.000       0.000       0.000    
  10   5.0000E-10  5.2000E-09  2.1000E-09  1.2000E-09  5.8000E-09   0.000       0.000       0.000       0.000       0.000    
  11   1.0000E-10  1.1000E-09  1.1000E-09  1.2000E-09  5.0000E-09   0.000       0.000       0.000       0.000       0.000    
  12   1.1000E-09  1.1000E-09  1.1000E-09  1.1000E-09  2.0000E-09   0.000       0.000       0.000       0.000       0.000    
  13   1.1000E-09  2.2000E-09  2.2000E-09  2.1000E-09  1.0000E-09   0.000       0.000       0.000       0.000       0.000    
  14   2.0000E-10  5.5000E-09  5.5000E-09  5.2000E-09  1.0000E-09   0.000       0.000       0.000       0.000       0.000    
  15    0.000      8.8000E-09  8.8000E-09   0.000       0.000       0.000       0.000       0.000       0.000       0.000    

                  ET RATE =  3.250000E-07

 USING ET EXTINCTION DEPTH FROM PREVIOUS STRESS PERIOD. CURRENT PERIOD IS:      33

 USING EXTINCTION WATER CONTENT FROM PREVIOUS STRESS PERIOD. CURRENT PERIOD IS:      33

 USING AIR ENTRY PRESSURE FROM PREVIOUS STRESS PERIOD. CURRENT PERIOD IS:      33

 USING ROOT PRESSURE HEAD FROM PREVIOUS STRESS PERIOD. CURRENT PERIOD IS:      33

 USING ROOT ACTIVITY FROM PREVIOUS STRESS PERIOD. CURRENT PERIOD IS:      33

 PROCESSING AG STRESS PERIOD DATA

 READING AG STRESS PERIOD DATA

 READING IRRIGATION SEGMENT

 READING IRRIGATION WELL

 READING SUPPLEMENTAL WELL

 END PROCESSING AG STRESS PERIOD DATA OPTIONS
 
 SOLVING FOR HEAD 
                                                   Max.-Head-Change                         Max.-Flux-Residual
  Residual-Control   Outer-Iter.   Inner-Iter.     Column Row Layer    Maximum-Head-Change  Column Row Layer    Maximum-Flux-Residual          L2-NORM 
          0                 1           2             4   13     1       0.1887133179E-01       4   13    1         0.1088444702E+01      0.2514872631E+01
          0                 2           2             4   13     1      -0.2050420164E-01       4   13    1        -0.1205607589E+01      0.2106805489E+01
          0                 3           2             4   13     1       0.1355206638E-02       4   13    1         0.8192090525E-01      0.1559944585E+00
          0                 4           1             4   13     1      -0.7979230074E-04       4   13    1        -0.4957952572E-02      0.9282652222E-02

    ------------------------------------------------
       NWT REQUIRED            4 OUTER ITERATIONS 
       AND A TOTAL OF          7 INNER ITERATIONS.
    ------------------------------------------------

 NO OUTPUT CONTROL FOR STRESS PERIOD   33   TIME STEP    1
 
 SOLVING FOR HEAD 
                                                   Max.-Head-Change                         Max.-Flux-Residual
  Residual-Control   Outer-Iter.   Inner-Iter.     Column Row Layer    Maximum-Head-Change  Column Row Layer    Maximum-Flux-Residual          L2-NORM 
          0                 1           2             4    7     1      -0.1581346769E-01       4   13    1         0.8588865176E+00      0.2285050120E+01
          0                 2           2             4   13     1      -0.1705864537E-01       4   13    1        -0.1002712858E+01      0.1749546375E+01
          0                 3           2             7   13     1      -0.1664126428E-02       7   13    1        -0.9287829806E-01      0.1575015320E+00
          0                 4           2             7   13     1       0.1132632550E-03       7   13    1         0.6493523803E-02      0.1634959560E-01
          0                 5           1             4    7     1      -0.5422786287E-04       4    7    1        -0.2992136991E-02      0.7329411872E-02

    ------------------------------------------------
       NWT REQUIRED            5 OUTER ITERATIONS 
       AND A TOTAL OF          9 INNER ITERATIONS.
    ------------------------------------------------

 NO OUTPUT CONTROL FOR STRESS PERIOD   33   TIME STEP    2
 
 SOLVING FOR HEAD 
                                                   Max.-Head-Change                         Max.-Flux-Residual
  Residual-Control   Outer-Iter.   Inner-Iter.     Column Row Layer    Maximum-Head-Change  Column Row Layer    Maximum-Flux-Residual          L2-NORM 
          0                 1           2             4    7     1      -0.1560021154E-01       4   13    1         0.8632329968E+00      0.2276050671E+01
          0                 2           2             4   13     1      -0.1707165185E-01       4   13    1        -0.1003473169E+01      0.1751012882E+01
          0                 3           2             7   13     1      -0.1659085824E-02       7   13    1        -0.9259767777E-01      0.1575301895E+00
          0                 4           2             7   13     1       0.1129254400E-03       7   13    1         0.6474183175E-02      0.1665211259E-01
          0                 5           1             4    7     1      -0.5551390766E-04       4    7    1        -0.3063093476E-02      0.7503080015E-02

    ------------------------------------------------
       NWT REQUIRED            5 OUTER ITERATIONS 
       AND A TOTAL OF          9 INNER ITERATIONS.
    ------------------------------------------------

 NO OUTPUT CONTROL FOR STRESS PERIOD   33   TIME STEP    3
 
 SOLVING FOR HEAD 
                                                   Max.-Head-Change                         Max.-Flux-Residual
  Residual-Control   Outer-Iter.   Inner-Iter.     Column Row Layer    Maximum-Head-Change  Column Row Layer    Maximum-Flux-Residual          L2-NORM 
          0                 1           2             4   13     1       0.1505115151E-01       4   13    1         0.8672295077E+00      0.1645210638E+01
          0                 2           2             4   13     1      -0.1708373428E-01       4   13    1        -0.1004179184E+01      0.1893552236E+01
          0                 3           2             4    7     1      -0.2377664347E-02       5    8    1        -0.1309492905E+00      0.3435136000E+00
          0                 4           2             4    7     1      -0.1218440828E-02       5    6    1        -0.6698302500E-01      0.1589169477E+00
          0                 5           2             4    7     1      -0.6062469912E-03       5    6    1        -0.3338698492E-01      0.7891441699E-01
          0                 6           2             4    7     1      -0.3034276886E-03       5    6    1        -0.1670056179E-01      0.3949909797E-01
          0                 7           2             4    7     1      -0.1516754343E-03       5    6    1        -0.8349221546E-02      0.1974436845E-01
          0                 8           1             4    7     1      -0.7585525767E-04       5    6    1        -0.4175311274E-02      0.9874354654E-02

    ------------------------------------------------
       NWT REQUIRED            8 OUTER ITERATIONS 
       AND A TOTAL OF         15 INNER ITERATIONS.
    ------------------------------------------------

 NO OUTPUT CONTROL FOR STRESS PERIOD   33   TIME STEP    4
 
 SOLVING FOR HEAD 
                                                   Max.-Head-Change                         Max.-Flux-Residual
  Residual-Control   Outer-Iter.   Inner-Iter.     Column Row Layer    Maximum-Head-Change  Column Row Layer    Maximum-Flux-Residual          L2-NORM 
          0                 1           2             4   13     1       0.1511543234E-01       4   13    1         0.8708945874E+00      0.1647034547E+01
          0                 2           2             4   13     1      -0.1709492696E-01       4   13    1        -0.1004832950E+01      0.1907708218E+01
          0                 3           2             5    6     1      -0.2455923285E-02       5    8    1        -0.1352845749E+00      0.3523887137E+00
          0                 4           2             4    7     1      -0.1261278088E-02       5    6    1        -0.6930963713E-01      0.1644583487E+00
          0                 5           2             5    6     1      -0.6271854397E-03       5    6    1        -0.3454040183E-01      0.8163647165E-01
          0                 6           2             4    7     1      -0.3139171610E-03       5    6    1        -0.1727756657E-01      0.4086421847E-01
          0                 7           2             4    7     1      -0.1569235215E-03       5    6    1        -0.8638116763E-02      0.2042754616E-01
          0                 8           1             4    7     1      -0.7846070143E-04       5    6    1        -0.4318774881E-02      0.1021355387E-01

    ------------------------------------------------
       NWT REQUIRED            8 OUTER ITERATIONS 
       AND A TOTAL OF         15 INNER ITERATIONS.
    ------------------------------------------------

 NO OUTPUT CONTROL FOR STRESS PERIOD   33   TIME STEP    5
 
 SOLVING FOR HEAD 
                                                   Max.-Head-Change                         Max.-Flux-Residual
  Residual-Control   Outer-Iter.   Inner-Iter.     Column Row Layer    Maximum-Head-Change  Column Row Layer    Maximum-Flux-Residual          L2-NORM 
          0                 1           2             4   13     1       0.1517459870E-01       4   13    1         0.8742658300E+00      0.1651414676E+01
          0                 2           2             4   13     1      -0.1710530876E-01       4   13    1        -0.1005439086E+01      0.1922192867E+01
          0                 3           2             5    6     1      -0.2534359166E-02       5    8    1        -0.1396109282E+00      0.3612992165E+00
          0                 4           2             4    7     1      -0.1304037645E-02       5    6    1        -0.7163197514E-01      0.1699899623E+00
          0                 5           2             5    6     1      -0.6480640290E-03       5    6    1        -0.3569029925E-01      0.8435009549E-01
          0                 6           2             4    7     1      -0.3243903386E-03       5    6    1        -0.1785362239E-01      0.4222717389E-01
          0                 7           2             4    7     1      -0.1617691229E-03       5    6    1        -0.8905977566E-02      0.2105924899E-01
          0                 8           1             4    7     1      -0.8130046471E-04       5    6    1        -0.4473824396E-02      0.1058217937E-01

    ------------------------------------------------
       NWT REQUIRED            8 OUTER ITERATIONS 
       AND A TOTAL OF         15 INNER ITERATIONS.
    ------------------------------------------------

 NO OUTPUT CONTROL FOR STRESS PERIOD   33   TIME STEP    6
 
 SOLVING FOR HEAD 
                                                   Max.-Head-Change                         Max.-Flux-Residual
  Residual-Control   Outer-Iter.   Inner-Iter.     Column Row Layer    Maximum-Head-Change  Column Row Layer    Maximum-Flux-Residual          L2-NORM 
          0                 1           2             4   13     1       0.1522908839E-01       4   13    1         0.8773685832E+00      0.1658302036E+01
          0                 2           2             4   13     1      -0.1711497260E-01       4   13    1        -0.1006003123E+01      0.1937006136E+01
          0                 3           2             5    6     1      -0.2612698222E-02       5    8    1        -0.1439319347E+00      0.3702502913E+00
          0                 4           2             4    7     1      -0.1346719394E-02       5    6    1        -0.7395015368E-01      0.1755122343E+00
          0                 5           2             5    6     1      -0.6689132297E-03       5    6    1        -0.3683857648E-01      0.8705995523E-01
          0                 6           2             4    7     1      -0.3348275839E-03       5    6    1        -0.1842776368E-01      0.4358550261E-01
          0                 7           2             4    7     1      -0.1673740493E-03       5    6    1        -0.9213428905E-02      0.2178798693E-01
          0                 8           1             4    7     1      -0.8368529202E-04       5    6    1        -0.4606350236E-02      0.1089364869E-01

    ------------------------------------------------
       NWT REQUIRED            8 OUTER ITERATIONS 
       AND A TOTAL OF         15 INNER ITERATIONS.
    ------------------------------------------------

 NO OUTPUT CONTROL FOR STRESS PERIOD   33   TIME STEP    7
 
 SOLVING FOR HEAD 
                                                   Max.-Head-Change                         Max.-Flux-Residual
  Residual-Control   Outer-Iter.   Inner-Iter.     Column Row Layer    Maximum-Head-Change  Column Row Layer    Maximum-Flux-Residual          L2-NORM 
          0                 1           2             4   13     1       0.1527932020E-01       4   13    1         0.8802269180E+00      0.1667618737E+01
          0                 2           2             4   13     1      -0.1712394569E-01       4   13    1        -0.1006526621E+01      0.1952142670E+01
          0                 3           2             4    6     1      -0.2730066151E-02       4    6    1        -0.1487212187E+00      0.3831701313E+00
          0                 4           2             4    6     1      -0.1398133064E-02       5    8    1        -0.7625993300E-01      0.1824213087E+00
          0                 5           2             4    6     1      -0.6967491922E-03       5    8    1        -0.3798391894E-01      0.9056152939E-01
          0                 6           2             4    6     1      -0.3485336032E-03       5    8    1        -0.1900143696E-01      0.4533083940E-01
          0                 7           2             4    6     1      -0.1742606081E-03       5    8    1        -0.9500250451E-02      0.2266139631E-01
          0                 8           1             4    6     1      -0.8712458571E-04       5    8    1        -0.4749759011E-02      0.1133023193E-01

    ------------------------------------------------
       NWT REQUIRED            8 OUTER ITERATIONS 
       AND A TOTAL OF         15 INNER ITERATIONS.
    ------------------------------------------------

 NO OUTPUT CONTROL FOR STRESS PERIOD   33   TIME STEP    8
 
 SOLVING FOR HEAD 
                                                   Max.-Head-Change                         Max.-Flux-Residual
  Residual-Control   Outer-Iter.   Inner-Iter.     Column Row Layer    Maximum-Head-Change  Column Row Layer    Maximum-Flux-Residual          L2-NORM 
          0                 1           2             4   13     1       0.1532574672E-01       4   13    1         0.8828670810E+00      0.1679301359E+01
          0                 2           2             4   13     1      -0.1713237859E-01       4   13    1        -0.1007018480E+01      0.1967602674E+01
          0                 3           2             5    7     1      -0.2822954654E-02       5    7    1        -0.1532437338E+00      0.4003813478E+00
          0                 4           2             5    7     1      -0.1445725900E-02       4    6    1        -0.7846748636E-01      0.1908072098E+00
          0                 5           2             5    7     1      -0.7204638989E-03       5    7    1        -0.3910234381E-01      0.9490517244E-01
          0                 6           2             5    7     1      -0.3603965682E-03       5    7    1        -0.1955952003E-01      0.4748414913E-01
          0                 7           2             5    7     1      -0.1801784761E-03       5    7    1        -0.9778634440E-02      0.2373822692E-01
          0                 8           1             5    7     1      -0.9008442196E-04       5    7    1        -0.4888997035E-02      0.1186849052E-01

    ------------------------------------------------
       NWT REQUIRED            8 OUTER ITERATIONS 
       AND A TOTAL OF         15 INNER ITERATIONS.
    ------------------------------------------------

 NO OUTPUT CONTROL FOR STRESS PERIOD   33   TIME STEP    9
 
 SOLVING FOR HEAD 
                                                   Max.-Head-Change                         Max.-Flux-Residual
  Residual-Control   Outer-Iter.   Inner-Iter.     Column Row Layer    Maximum-Head-Change  Column Row Layer    Maximum-Flux-Residual          L2-NORM 
          0                 1           2             4   13     1       0.1536851465E-01       4   13    1         0.8852973050E+00      0.1693259424E+01
          0                 2           2             4   13     1      -0.1714020585E-01       4   13    1        -0.1007474812E+01      0.1983368679E+01
          0                 3           2             5    7     1      -0.2901905261E-02       5    7    1        -0.1575315033E+00      0.4099259869E+00
          0                 4           2             5    7     1      -0.1488232907E-02       4    6    1        -0.8077363697E-01      0.1964124913E+00
          0                 5           2             5    7     1      -0.7415104454E-03       5    7    1        -0.4024464229E-01      0.9767678590E-01
          0                 6           2             5    7     1      -0.3709276395E-03       5    7    1        -0.2013105447E-01      0.4887174189E-01
          0                 7           2             5    7     1      -0.1854555073E-03       5    7    1        -0.1006502575E-01      0.2443346428E-01
          0                 8           1             5    7     1      -0.9272870649E-04       5    7    1        -0.5032503889E-02      0.1221687329E-01

    ------------------------------------------------
       NWT REQUIRED            8 OUTER ITERATIONS 
       AND A TOTAL OF         15 INNER ITERATIONS.
    ------------------------------------------------

 NO OUTPUT CONTROL FOR STRESS PERIOD   33   TIME STEP   10
 
 SOLVING FOR HEAD 
                                                   Max.-Head-Change                         Max.-Flux-Residual
  Residual-Control   Outer-Iter.   Inner-Iter.     Column Row Layer    Maximum-Head-Change  Column Row Layer    Maximum-Flux-Residual          L2-NORM 
          0                 1           2             4   13     1       0.1540810340E-01       4   13    1         0.8875454133E+00      0.1709417393E+01
          0                 2           2             4   13     1      -0.1714755542E-01       4   13    1        -0.1007903155E+01      0.1999442741E+01
          0                 3           2             5    7     1      -0.2980750513E-02       5    7    1        -0.1618135561E+00      0.4194952214E+00
          0                 4           2             5    7     1      -0.1530685765E-02       4    6    1        -0.8307684662E-01      0.2020108630E+00
          0                 5           2             5    7     1      -0.7625146332E-03       5    7    1        -0.4138464180E-01      0.1004428035E+00
          0                 6           2             5    7     1      -0.3814506921E-03       5    7    1        -0.2070215276E-01      0.5025829255E-01
          0                 7           2             5    7     1      -0.1907111205E-03       5    7    1        -0.1035025534E-01      0.2512585904E-01
          0                 8           1             5    7     1      -0.9536130321E-04       5    7    1        -0.5175376311E-02      0.1256371693E-01

    ------------------------------------------------
       NWT REQUIRED            8 OUTER ITERATIONS 
       AND A TOTAL OF         15 INNER ITERATIONS.
    ------------------------------------------------

 NO OUTPUT CONTROL FOR STRESS PERIOD   33   TIME STEP   11
 
 SOLVING FOR HEAD 
                                                   Max.-Head-Change                         Max.-Flux-Residual
  Residual-Control   Outer-Iter.   Inner-Iter.     Column Row Layer    Maximum-Head-Change  Column Row Layer    Maximum-Flux-Residual          L2-NORM 
          0                 1           2             4   13     1       0.1544466948E-01       4   13    1         0.8896202951E+00      0.1727675657E+01
          0                 2           2             4   13     1      -0.1715439483E-01       4   13    1        -0.1008301600E+01      0.2015813906E+01
          0                 3           2             5    7     1      -0.3059496526E-02       5    7    1        -0.1660902151E+00      0.4290882590E+00
          0                 4           2             5    7     1      -0.1573066460E-02       4    6    1        -0.8537614699E-01      0.2076000246E+00
          0                 5           2             5    7     1      -0.7834887145E-03       5    7    1        -0.4252300621E-01      0.1032048653E+00
          0                 6           2             5    7     1      -0.3919516790E-03       5    7    1        -0.2127205350E-01      0.5164192679E-01
          0                 7           2             5    7     1      -0.1959660840E-03       5    7    1        -0.1063544900E-01      0.2581817997E-01
          0                 8           1             5    7     1      -0.9798295540E-04       5    7    1        -0.5317655187E-02      0.1290910613E-01

    ------------------------------------------------
       NWT REQUIRED            8 OUTER ITERATIONS 
       AND A TOTAL OF         15 INNER ITERATIONS.
    ------------------------------------------------

 NO OUTPUT CONTROL FOR STRESS PERIOD   33   TIME STEP   12
 
 SOLVING FOR HEAD 
                                                   Max.-Head-Change                         Max.-Flux-Residual
  Residual-Control   Outer-Iter.   Inner-Iter.     Column Row Layer    Maximum-Head-Change  Column Row Layer    Maximum-Flux-Residual          L2-NORM 
          0                 1           2             4   13     1       0.1547855442E-01       4   13    1         0.8915418096E+00      0.1747944853E+01
          0                 2           2             4   13     1      -0.1716079973E-01       4   13    1        -0.1008674619E+01      0.2032472593E+01
          0                 3           2             4    7     1      -0.3186208477E-02       4    7    1        -0.1710552945E+00      0.4431767153E+00
          0                 4           2             4    7     1      -0.1630963305E-02       5    6    1        -0.8765794084E-01      0.2147479794E+00
          0                 5           2             4    7     1      -0.8128223589E-03       4    7    1        -0.4362800078E-01      0.1068529918E+00
          0                 6           2             4    7     1      -0.4065946998E-03       5    6    1        -0.2182367947E-01      0.5345678961E-01
          0                 7           2             4    7     1      -0.2032881504E-03       4    7    1        -0.1091118137E-01      0.2672645859E-01
          0                 8           1             4    7     1      -0.1016304447E-03       4    7    1        -0.5454807483E-02      0.1336134547E-01
          0                 9           1             4    7     1      -0.5082902733E-04       4    7    1        -0.2728119309E-02      0.6682423155E-02

    ------------------------------------------------
       NWT REQUIRED            9 OUTER ITERATIONS 
       AND A TOTAL OF         16 INNER ITERATIONS.
    ------------------------------------------------

 NO OUTPUT CONTROL FOR STRESS PERIOD   33   TIME STEP   13
 
 SOLVING FOR HEAD 
                                                   Max.-Head-Change                         Max.-Flux-Residual
  Residual-Control   Outer-Iter.   Inner-Iter.     Column Row Layer    Maximum-Head-Change  Column Row Layer    Maximum-Flux-Residual          L2-NORM 
          0                 1           2             4   13     1       0.1550996500E-01       4   13    1         0.8933196857E+00      0.1770673782E+01
          0                 2           2             4   13     1      -0.1716687735E-01       4   13    1        -0.1009026276E+01      0.2049969467E+01
          0                 3           2             4    7     1      -0.3268135686E-02       4    7    1        -0.1754521048E+00      0.4533075856E+00
          0                 4           2             4    7     1      -0.1675108387E-02       5    6    1        -0.9002593819E-01      0.2205454250E+00
          0                 5           2             4    7     1      -0.8346775065E-03       4    7    1        -0.4480104498E-01      0.1097264604E+00
          0                 6           2             4    7     1      -0.4175373940E-03       5    6    1        -0.2241099011E-01      0.5489542040E-01
          0                 7           2             4    7     1      -0.2087517243E-03       4    7    1        -0.1120442616E-01      0.2744475123E-01
          0                 8           1             4    7     1      -0.1043771872E-03       4    7    1        -0.5602231226E-02      0.1372245426E-01
          0                 9           1             4    7     1      -0.5218690166E-04       4    7    1        -0.2800998724E-02      0.6860938453E-02

    ------------------------------------------------
       NWT REQUIRED            9 OUTER ITERATIONS 
       AND A TOTAL OF         16 INNER ITERATIONS.
    ------------------------------------------------

 NO OUTPUT CONTROL FOR STRESS PERIOD   33   TIME STEP   14
 
 SOLVING FOR HEAD 
                                                   Max.-Head-Change                         Max.-Flux-Residual
  Residual-Control   Outer-Iter.   Inner-Iter.     Column Row Layer    Maximum-Head-Change  Column Row Layer    Maximum-Flux-Residual          L2-NORM 
          0                 1           2             4   13     1       0.1553908737E-01       4   13    1         0.8949697086E+00      0.1795387461E+01
          0                 2           2             4   13     1      -0.1717251120E-01       4   13    1        -0.1009355299E+01      0.2067792956E+01
          0                 3           2             4    7     1      -0.3350166380E-02       4    7    1        -0.1798544663E+00      0.4634809088E+00
          0                 4           2             4    7     1      -0.1719326208E-02       5    6    1        -0.9239783292E-01      0.2263528069E+00
          0                 5           2             4    7     1      -0.8565520063E-03       4    7    1        -0.4597512718E-01      0.1126024765E+00
          0                 6           2             4    7     1      -0.4285009500E-03       4    8    1        -0.2299942096E-01      0.5633679306E-01
          0                 7           2             4    7     1      -0.2142271674E-03       4    7    1        -0.1149830781E-01      0.2816460380E-01
          0                 8           1             4    7     1      -0.1071208790E-03       4    7    1        -0.5749491135E-02      0.1408316175E-01
          0                 9           1             4    7     1      -0.5354721125E-04       4    7    1        -0.2874008814E-02      0.7039773861E-02

    ------------------------------------------------
       NWT REQUIRED            9 OUTER ITERATIONS 
       AND A TOTAL OF         16 INNER ITERATIONS.
    ------------------------------------------------

 NO OUTPUT CONTROL FOR STRESS PERIOD   33   TIME STEP   15
 
 SOLVING FOR HEAD 
                                                   Max.-Head-Change                         Max.-Flux-Residual
  Residual-Control   Outer-Iter.   Inner-Iter.     Column Row Layer    Maximum-Head-Change  Column Row Layer    Maximum-Flux-Residual          L2-NORM 
          0                 1           2             4   13     1       0.1556608836E-01       4   13    1         0.8964983448E+00      0.1821957196E+01
          0                 2           2             4   13     1      -0.1717782121E-01       4   13    1        -0.1009665351E+01      0.2085924274E+01
          0                 3           2             4    7     1      -0.3432187374E-02       4    7    1        -0.1842563095E+00      0.4736819105E+00
          0                 4           2             4    7     1      -0.1763511423E-02       5    6    1        -0.9476796484E-01      0.2321560509E+00
          0                 5           2             4    7     1      -0.8784288049E-03       4    7    1        -0.4714933207E-01      0.1154787947E+00
          0                 6           2             4    7     1      -0.4394421428E-03       4    8    1        -0.2358666052E-01      0.5777522466E-01
          0                 7           2             4    7     1      -0.2197041798E-03       4    7    1        -0.1179227356E-01      0.2888466235E-01
          0                 8           2             4    7     1      -0.1098511360E-03       4    7    1        -0.5896029934E-02      0.1444210278E-01
          0                 9           1             4    7     1      -0.5491956958E-04       4    7    1        -0.2947665465E-02      0.7220192943E-02

    ------------------------------------------------
       NWT REQUIRED            9 OUTER ITERATIONS 
       AND A TOTAL OF         17 INNER ITERATIONS.
    ------------------------------------------------

 NO OUTPUT CONTROL FOR STRESS PERIOD   33   TIME STEP   16
 
 SOLVING FOR HEAD 
                                                   Max.-Head-Change                         Max.-Flux-Residual
  Residual-Control   Outer-Iter.   Inner-Iter.     Column Row Layer    Maximum-Head-Change  Column Row Layer    Maximum-Flux-Residual          L2-NORM 
          0                 1           2             4   13     1       0.1559115024E-01       4   13    1         0.8979161054E+00      0.1850297052E+01
          0                 2           2             4   13     1      -0.1718290415E-01       4   13    1        -0.1009957285E+01      0.2104364104E+01
          0                 3           2             4    7     1      -0.3514159506E-02       4    7    1        -0.1886555250E+00      0.4839115763E+00
          0                 4           2             4    7     1      -0.1807677880E-02       5    6    1        -0.9713708141E-01      0.2379569808E+00
          0                 5           2             4    7     1      -0.9002802803E-03       4    7    1        -0.4832217701E-01      0.1183517794E+00
          0                 6           2             4    7     1      -0.4503984427E-03       4    8    1        -0.2417471054E-01      0.5921564148E-01
          0                 7           2             4    7     1      -0.2251668121E-03       4    7    1        -0.1208546727E-01      0.2960282987E-01
          0                 8           2             4    7     1      -0.1125846239E-03       4    7    1        -0.6042741997E-02      0.1480146831E-01
          0                 9           1             4    7     1      -0.5630280635E-04       4    7    1        -0.3021906029E-02      0.7402042390E-02

    ------------------------------------------------
       NWT REQUIRED            9 OUTER ITERATIONS 
       AND A TOTAL OF         17 INNER ITERATIONS.
    ------------------------------------------------

 NO OUTPUT CONTROL FOR STRESS PERIOD   33   TIME STEP   17
 
 SOLVING FOR HEAD 
                                                   Max.-Head-Change                         Max.-Flux-Residual
  Residual-Control   Outer-Iter.   Inner-Iter.     Column Row Layer    Maximum-Head-Change  Column Row Layer    Maximum-Flux-Residual          L2-NORM 
          0                 1           2             4   13     1       0.1561451129E-01       4   13    1         0.8992366807E+00      0.1868712452E+01
          0                 2           2             4   13     1      -0.1718764183E-01       4   13    1        -0.1010232822E+01      0.2113205768E+01
          0                 3           2             4    7     1      -0.3549462891E-02       4    7    1        -0.1905497774E+00      0.4883224261E+00
          0                 4           2             4    7     1      -0.1827249899E-02       5    6    1        -0.9818612998E-01      0.2405262528E+00
          0                 5           2             4    7     1      -0.9100572382E-03       4    7    1        -0.4884692914E-01      0.1196372926E+00
          0                 6           2             4    7     1      -0.4552686312E-03       4    8    1        -0.2443609775E-01      0.5985590371E-01
          0                 7           2             4    7     1      -0.2276109379E-03       4    7    1        -0.1221664742E-01      0.2992415137E-01
          0                 8           2             4    7     1      -0.1138104851E-03       4    7    1        -0.6108535332E-02      0.1496262647E-01
          0                 9           1             4    7     1      -0.5690547057E-04       4    7    1        -0.3054251356E-02      0.7481271005E-02

    ------------------------------------------------
       NWT REQUIRED            9 OUTER ITERATIONS 
       AND A TOTAL OF         17 INNER ITERATIONS.
    ------------------------------------------------

 NO OUTPUT CONTROL FOR STRESS PERIOD   33   TIME STEP   18
 
 SOLVING FOR HEAD 
                                                   Max.-Head-Change                         Max.-Flux-Residual
  Residual-Control   Outer-Iter.   Inner-Iter.     Column Row Layer    Maximum-Head-Change  Column Row Layer    Maximum-Flux-Residual          L2-NORM 
          0                 1           2             4   13     1       0.1563625818E-01       4   13    1         0.9004651712E+00      0.1878444900E+01
          0                 2           2             4   13     1      -0.1719212125E-01       4   13    1        -0.1010493304E+01      0.2114650725E+01
          0                 3           2             4    7     1      -0.3548940230E-02       4    7    1        -0.1905210471E+00      0.4882564375E+00
          0                 4           2             4    7     1      -0.1827571509E-02       5    6    1        -0.9820193379E-01      0.2405659388E+00
          0                 5           2             4    7     1      -0.9101661249E-03       4    7    1        -0.4885275349E-01      0.1196517137E+00
          0                 6           2             4    7     1      -0.4553433663E-03       4    8    1        -0.2444009651E-01      0.5986569763E-01
          0                 7           2             4    7     1      -0.2276413323E-03       4    7    1        -0.1221827443E-01      0.2992813749E-01
          0                 8           2             4    7     1      -0.1138328332E-03       4    7    1        -0.6109732649E-02      0.1496555944E-01
          0                 9           1             4    7     1      -0.5690170712E-04       4    7    1        -0.3054048263E-02      0.7480773522E-02

    ------------------------------------------------
       NWT REQUIRED            9 OUTER ITERATIONS 
       AND A TOTAL OF         17 INNER ITERATIONS.
    ------------------------------------------------

 NO OUTPUT CONTROL FOR STRESS PERIOD   33   TIME STEP   19
 
 SOLVING FOR HEAD 
                                                   Max.-Head-Change                         Max.-Flux-Residual
  Residual-Control   Outer-Iter.   Inner-Iter.     Column Row Layer    Maximum-Head-Change  Column Row Layer    Maximum-Flux-Residual          L2-NORM 
          0                 1           2             4   13     1       0.1565647351E-01       4   13    1         0.9016061472E+00      0.1887934017E+01
          0                 2           2             4   13     1      -0.1719633220E-01       4   13    1        -0.1010738067E+01      0.2116052544E+01
          0                 3           2             4    7     1      -0.3548406790E-02       4    7    1        -0.1904917467E+00      0.4881889549E+00
          0                 4           2             4    7     1      -0.1827893867E-02       5    6    1        -0.9821777632E-01      0.2406057475E+00
          0                 5           2             4    7     1      -0.9102971654E-03       4    7    1        -0.4885976714E-01      0.1196690481E+00
          0                 6           2             4    7     1      -0.4553943393E-03       4    8    1        -0.2444281991E-01      0.5987236760E-01
          0                 7           2             4    7     1      -0.2276844942E-03       4    7    1        -0.1222058677E-01      0.2993380220E-01
          0                 8           2             4    7     1      -0.1138409608E-03       4    7    1        -0.6110166722E-02      0.1496662239E-01
          0                 9           1             4    7     1      -0.5692559196E-04       4    7    1        -0.3055329150E-02      0.7483911039E-02

    ------------------------------------------------
       NWT REQUIRED            9 OUTER ITERATIONS 
       AND A TOTAL OF         17 INNER ITERATIONS.
    ------------------------------------------------

 NO OUTPUT CONTROL FOR STRESS PERIOD   33   TIME STEP   20
 
 SOLVING FOR HEAD 
                                                   Max.-Head-Change                         Max.-Flux-Residual
  Residual-Control   Outer-Iter.   Inner-Iter.     Column Row Layer    Maximum-Head-Change  Column Row Layer    Maximum-Flux-Residual          L2-NORM 
          0                 1           2             4   13     1       0.1567534305E-01       4   13    1         0.9026703823E+00      0.1897189153E+01
          0                 2           2             4   13     1      -0.1720034589E-01       4   13    1        -0.1010971339E+01      0.2117414965E+01
          0                 3           2             4    7     1      -0.3547900484E-02       4    7    1        -0.1904639090E+00      0.4881258077E+00
          0                 4           2             4    7     1      -0.1828225424E-02       5    6    1        -0.9823412132E-01      0.2406468171E+00
          0                 5           2             4    7     1      -0.9104297791E-03       4    7    1        -0.4886686540E-01      0.1196865896E+00
          0                 6           2             4    7     1      -0.4554563049E-03       4    8    1        -0.2444613345E-01      0.5988048303E-01
          0                 7           2             4    7     1      -0.2277157805E-03       4    7    1        -0.1222226173E-01      0.2993790583E-01
          0                 8           2             4    7     1      -0.1138632457E-03       4    7    1        -0.6111360684E-02      0.1496954693E-01
          0                 9           1             4    7     1      -0.5692405329E-04       4    7    1        -0.3055245494E-02      0.7483706174E-02

    ------------------------------------------------
       NWT REQUIRED            9 OUTER ITERATIONS 
       AND A TOTAL OF         17 INNER ITERATIONS.
    ------------------------------------------------

 NO OUTPUT CONTROL FOR STRESS PERIOD   33   TIME STEP   21
 
 SOLVING FOR HEAD 
                                                   Max.-Head-Change                         Max.-Flux-Residual
  Residual-Control   Outer-Iter.   Inner-Iter.     Column Row Layer    Maximum-Head-Change  Column Row Layer    Maximum-Flux-Residual          L2-NORM 
          0                 1           2             4   13     1       0.1569305434E-01       4   13    1         0.9036687157E+00      0.1906224940E+01
          0                 2           2             4   13     1      -0.1720418157E-01       4   13    1        -0.1011194235E+01      0.2118739065E+01
          0                 3           2             4    7     1      -0.3547422317E-02       4    7    1        -0.1904375866E+00      0.4880660201E+00
          0                 4           2             4    7     1      -0.1828568330E-02       5    6    1        -0.9825108574E-01      0.2406893286E+00
          0                 5           2             4    7     1      -0.9105371644E-03       4    7    1        -0.4887260969E-01      0.1197008122E+00
          0                 6           2             4    7     1      -0.4555311402E-03       4    8    1        -0.2445013790E-01      0.5989029085E-01
          0                 7           2             4    7     1      -0.2277461650E-03       4    7    1        -0.1222388833E-01      0.2994189084E-01
          0                 8           2             4    7     1      -0.1138722674E-03       4    7    1        -0.6111842788E-02      0.1497072778E-01
          0                 9           1             4    7     1      -0.5693676942E-04       4    7    1        -0.3055926961E-02      0.7485375750E-02

    ------------------------------------------------
       NWT REQUIRED            9 OUTER ITERATIONS 
       AND A TOTAL OF         17 INNER ITERATIONS.
    ------------------------------------------------

 NO OUTPUT CONTROL FOR STRESS PERIOD   33   TIME STEP   22
 
 SOLVING FOR HEAD 
                                                   Max.-Head-Change                         Max.-Flux-Residual
  Residual-Control   Outer-Iter.   Inner-Iter.     Column Row Layer    Maximum-Head-Change  Column Row Layer    Maximum-Flux-Residual          L2-NORM 
          0                 1           2             4   13     1       0.1570957062E-01       4   13    1         0.9045990082E+00      0.1915044798E+01
          0                 2           2             4   13     1      -0.1720780108E-01       4   13    1        -0.1011404495E+01      0.2120025103E+01
          0                 3           2             4    7     1      -0.3546972255E-02       4    7    1        -0.1904127806E+00      0.4880095936E+00
          0                 4           2             4    7     1      -0.1828884830E-02       5    6    1        -0.9826664408E-01      0.2407284225E+00
          0                 5           2             4    7     1      -0.9106686047E-03       4    7    1        -0.4887964533E-01      0.1197181975E+00
          0                 6           2             4    7     1      -0.4555931846E-03       4    8    1        -0.2445345586E-01      0.5989841720E-01
          0                 7           2             4    7     1      -0.2277774445E-03       4    7    1        -0.1222556301E-01      0.2994599364E-01
          0                 8           2             4    7     1      -0.1138812253E-03       4    7    1        -0.6112321511E-02      0.1497190033E-01
          0                 9           1             4    7     1      -0.5694726953E-04       4    7    1        -0.3056489480E-02      0.7486753293E-02

    ------------------------------------------------
       NWT REQUIRED            9 OUTER ITERATIONS 
       AND A TOTAL OF         17 INNER ITERATIONS.
    ------------------------------------------------

 NO OUTPUT CONTROL FOR STRESS PERIOD   33   TIME STEP   23
 
 SOLVING FOR HEAD 
                                                   Max.-Head-Change                         Max.-Flux-Residual
  Residual-Control   Outer-Iter.   Inner-Iter.     Column Row Layer    Maximum-Head-Change  Column Row Layer    Maximum-Flux-Residual          L2-NORM 
          0                 1           2             4   13     1       0.1572512468E-01       4   13    1         0.9054745307E+00      0.1923663452E+01
          0                 2           2             4   13     1      -0.1721125796E-01       4   13    1        -0.1011605279E+01      0.2121275214E+01
          0                 3           2             4    7     1      -0.3546524255E-02       4    7    1        -0.1903880914E+00      0.4879535477E+00
          0                 4           2             4    7     1      -0.1829212284E-02       5    6    1        -0.9828279454E-01      0.2407689497E+00
          0                 5           2             4    7     1      -0.9107992747E-03       4    7    1        -0.4888663981E-01      0.1197354809E+00
          0                 6           2             4    7     1      -0.4556575024E-03       4    8    1        -0.2445689601E-01      0.5990684271E-01
          0                 7           2             4    7     1      -0.2278063426E-03       4    7    1        -0.1222710992E-01      0.2994978346E-01
          0                 8           2             4    7     1      -0.1139170029E-03       4    7    1        -0.6114239715E-02      0.1497659888E-01
          0                 9           1             4    7     1      -0.5694478465E-04       4    7    1        -0.3056355076E-02      0.7486424041E-02

    ------------------------------------------------
       NWT REQUIRED            9 OUTER ITERATIONS 
       AND A TOTAL OF         17 INNER ITERATIONS.
    ------------------------------------------------

 NO OUTPUT CONTROL FOR STRESS PERIOD   33   TIME STEP   24
 
 SOLVING FOR HEAD 
                                                   Max.-Head-Change                         Max.-Flux-Residual
  Residual-Control   Outer-Iter.   Inner-Iter.     Column Row Layer    Maximum-Head-Change  Column Row Layer    Maximum-Flux-Residual          L2-NORM 
          0                 1           2             4   13     1       0.1573959479E-01       4   13    1         0.9062883048E+00      0.1932078497E+01
          0                 2           2             4   13     1      -0.1721453192E-01       4   13    1        -0.1011795383E+01      0.2122492112E+01
          0                 3           2             4    7     1      -0.3546090612E-02       4    7    1        -0.1903641813E+00      0.4878993563E+00
          0                 4           2             4    7     1      -0.1829552053E-02       5    6    1        -0.9829961142E-01      0.2408111531E+00
          0                 5           2             4    7     1      -0.9109179743E-03       4    7    1        -0.4889299195E-01      0.1197511913E+00
          0                 6           2             4    7     1      -0.4557315410E-03       4    8    1        -0.2446085798E-01      0.5991654655E-01
          0                 7           2             4    7     1      -0.2278367801E-03       4    7    1        -0.1222873949E-01      0.2995377577E-01
          0                 8           2             4    7     1      -0.1139260192E-03       4    7    1        -0.6114721602E-02      0.1497777919E-01
          0                 9           1             4    7     1      -0.5695750126E-04       4    7    1        -0.3057036587E-02      0.7488093339E-02

    ------------------------------------------------
       NWT REQUIRED            9 OUTER ITERATIONS 
       AND A TOTAL OF         17 INNER ITERATIONS.
    ------------------------------------------------

 NO OUTPUT CONTROL FOR STRESS PERIOD   33   TIME STEP   25
 
 SOLVING FOR HEAD 
                                                   Max.-Head-Change                         Max.-Flux-Residual
  Residual-Control   Outer-Iter.   Inner-Iter.     Column Row Layer    Maximum-Head-Change  Column Row Layer    Maximum-Flux-Residual          L2-NORM 
          0                 1           2             4   13     1       0.1575324427E-01       4   13    1         0.9070555199E+00      0.1940317778E+01
          0                 2           2             4   13     1      -0.1721766844E-01       4   13    1        -0.1011977484E+01      0.2123677668E+01
          0                 3           2             4    7     1      -0.3545683345E-02       4    7    1        -0.1903416941E+00      0.4878483739E+00
          0                 4           2             4    7     1      -0.1829878863E-02       5    6    1        -0.9831574770E-01      0.2408516589E+00
          0                 5           2             4    7     1      -0.9110486835E-03       4    7    1        -0.4889998885E-01      0.1197684779E+00
          0                 6           2             4    7     1      -0.4557936311E-03       4    8    1        -0.2446417880E-01      0.5992467968E-01
          0                 7           2             4    7     1      -0.2278813801E-03       4    7    1        -0.1223112924E-01      0.2995963013E-01
          0                 8           2             4    7     1      -0.1139340431E-03       4    7    1        -0.6115150238E-02      0.1497882906E-01
          0                 9           1             4    7     1      -0.5696806584E-04       4    7    1        -0.3057602592E-02      0.7489479834E-02

    ------------------------------------------------
       NWT REQUIRED            9 OUTER ITERATIONS 
       AND A TOTAL OF         17 INNER ITERATIONS.
    ------------------------------------------------

 NO OUTPUT CONTROL FOR STRESS PERIOD   33   TIME STEP   26
 
 SOLVING FOR HEAD 
                                                   Max.-Head-Change                         Max.-Flux-Residual
  Residual-Control   Outer-Iter.   Inner-Iter.     Column Row Layer    Maximum-Head-Change  Column Row Layer    Maximum-Flux-Residual          L2-NORM 
          0                 1           2             4   13     1       0.1576595555E-01       4   13    1         0.9077693645E+00      0.1948379681E+01
          0                 2           2             4   13     1      -0.1722064281E-01       4   13    1        -0.1012150126E+01      0.2124833581E+01
          0                 3           2             4    7     1      -0.3545301750E-02       4    7    1        -0.1903205915E+00      0.4878007455E+00
          0                 4           2             4    7     1      -0.1830201648E-02       5    6    1        -0.9833168366E-01      0.2408916379E+00
          0                 5           2             4    7     1      -0.9111818916E-03       4    7    1        -0.4890712008E-01      0.1197860921E+00
          0                 6           2             4    7     1      -0.4558666502E-03       4    8    1        -0.2446808630E-01      0.5993424997E-01
          0                 7           2             4    7     1      -0.2278985615E-03       4    7    1        -0.1223204739E-01      0.2996187977E-01
          0                 8           2             4    7     1      -0.1139573139E-03       4    7    1        -0.6116397232E-02      0.1498188350E-01
          0                 9           1             4    7     1      -0.5697756231E-04       4    7    1        -0.3058111267E-02      0.7490725857E-02

    ------------------------------------------------
       NWT REQUIRED            9 OUTER ITERATIONS 
       AND A TOTAL OF         17 INNER ITERATIONS.
    ------------------------------------------------

 NO OUTPUT CONTROL FOR STRESS PERIOD   33   TIME STEP   27
 
 SOLVING FOR HEAD 
                                                   Max.-Head-Change                         Max.-Flux-Residual
  Residual-Control   Outer-Iter.   Inner-Iter.     Column Row Layer    Maximum-Head-Change  Column Row Layer    Maximum-Flux-Residual          L2-NORM 
          0                 1           2             5    6     1       0.1595259086E-01       4   13    1         0.9084456306E+00      0.2599067982E+01
          0                 2           2             4   13     1      -0.1693000633E-01       4   13    1        -0.9951893985E+00      0.2499823670E+01
          0                 3           2             4    7     1      -0.5289887202E-02       4    7    1        -0.2839611561E+00      0.7048256878E+00
          0                 4           2             4    7     1      -0.2745170657E-02       5    6    1        -0.1474399593E+00      0.3611293555E+00
          0                 5           2             4    7     1      -0.1365733161E-02       4    7    1        -0.7330477505E-01      0.1795472690E+00
          0                 6           2             4    7     1      -0.6833999658E-03       4    7    1        -0.3668058818E-01      0.8984840153E-01
          0                 7           2             4    7     1      -0.3416583257E-03       4    7    1        -0.1833789281E-01      0.4491791442E-01
          0                 8           2             4    7     1      -0.1708315947E-03       4    7    1        -0.9168990766E-02      0.2245909399E-01
          0                 9           1             4    7     1      -0.8541371911E-04       4    7    1        -0.4584340978E-02      0.1122916677E-01

    ------------------------------------------------
       NWT REQUIRED            9 OUTER ITERATIONS 
       AND A TOTAL OF         17 INNER ITERATIONS.
    ------------------------------------------------

 NO OUTPUT CONTROL FOR STRESS PERIOD   33   TIME STEP   28
 
 SOLVING FOR HEAD 
                                                   Max.-Head-Change                         Max.-Flux-Residual
  Residual-Control   Outer-Iter.   Inner-Iter.     Column Row Layer    Maximum-Head-Change  Column Row Layer    Maximum-Flux-Residual          L2-NORM 
          0                 1           2             5    6     1       0.1602581581E-01       4   13    1         0.9090872712E+00      0.2609672186E+01
          0                 2           2             4   13     1      -0.1692503815E-01       4   13    1        -0.9948985721E+00      0.2497666250E+01
          0                 3           2             4    7     1      -0.5305616265E-02       4    7    1        -0.2848047742E+00      0.7067645530E+00
          0                 4           2             4    7     1      -0.2751354082E-02       5    6    1        -0.1477704367E+00      0.3619395228E+00
          0                 5           2             4    7     1      -0.1368938654E-02       4    7    1        -0.7347680111E-01      0.1799687882E+00
          0                 6           2             4    7     1      -0.6849991722E-03       4    7    1        -0.3676641181E-01      0.9005861288E-01
          0                 7           2             4    7     1      -0.3424459545E-03       4    7    1        -0.1838016140E-01      0.4502145039E-01
          0                 8           2             4    7     1      -0.1712384592E-03       4    7    1        -0.9190825317E-02      0.2251257692E-01
          0                 9           1             4    7     1      -0.8561179359E-04       4    7    1        -0.4594970571E-02      0.1125520356E-01

    ------------------------------------------------
       NWT REQUIRED            9 OUTER ITERATIONS 
       AND A TOTAL OF         17 INNER ITERATIONS.
    ------------------------------------------------

 NO OUTPUT CONTROL FOR STRESS PERIOD   33   TIME STEP   29
 
 SOLVING FOR HEAD 
                                                   Max.-Head-Change                         Max.-Flux-Residual
  Residual-Control   Outer-Iter.   Inner-Iter.     Column Row Layer    Maximum-Head-Change  Column Row Layer    Maximum-Flux-Residual          L2-NORM 
          0                 1           2             5    6     1       0.1609742374E-01       4   13    1         0.9096844116E+00      0.2620037501E+01
          0                 2           2             4   13     1      -0.1691983598E-01       4   13    1        -0.9945941058E+00      0.2495455796E+01
          0                 3           2             4    7     1      -0.5321457210E-02       4    7    1        -0.2856544121E+00      0.7087180508E+00
          0                 4           2             4    7     1      -0.2757567424E-02       5    6    1        -0.1481025378E+00      0.3627536450E+00
          0                 5           2             4    7     1      -0.1372175364E-02       4    7    1        -0.7365050291E-01      0.1803944086E+00
          0                 6           2             4    7     1      -0.6865961912E-03       4    7    1        -0.3685211810E-01      0.9026853693E-01
          0                 7           2             4    7     1      -0.3432603871E-03       4    7    1        -0.1842386869E-01      0.4512851051E-01
          0                 8           2             4    7     1      -0.1716301201E-03       4    7    1        -0.9211843852E-02      0.2256406101E-01
          0                 9           1             4    7     1      -0.8580871140E-04       4    7    1        -0.4605538113E-02      0.1128108845E-01

    ------------------------------------------------
       NWT REQUIRED            9 OUTER ITERATIONS 
       AND A TOTAL OF         17 INNER ITERATIONS.
    ------------------------------------------------

 NO OUTPUT CONTROL FOR STRESS PERIOD   33   TIME STEP   30



 STREAM LISTING     PERIOD     33   STEP       30

 LAYER ROW COL. STREAM  RCH.  FLOW INTO     FLOW TO   FLOW OUT OF   OVRLND.     DIRECT     STREAM       STREAM     STREAM     STREAM   STREAMBED  STREAMBED
                SEG.NO.  NO.  STRM. RCH.    AQUIFER    STRM. RCH.    RUNOFF     PRECIP       ET          HEAD       DEPTH      WIDTH   CONDCTNC.   GRADIENT

   1    1    1     1     1    4.5749E+01  3.2289E-01   4.5426E+01  0.000E+00  0.000E+00  0.000E+00  1.09442E+03  1.372E+00  1.641E+01  7.386E-02  1.457E+00
   1    2    2     1     2    4.5426E+01  5.0022E-01   4.4925E+01  0.000E+00  0.000E+00  0.000E+00  1.08943E+03  1.369E+00  1.636E+01  1.145E-01  1.456E+00
   1    3    3     1     3    4.4925E+01  4.2678E-01   4.4499E+01  0.000E+00  0.000E+00  0.000E+00  1.08378E+03  1.366E+00  1.629E+01  9.776E-02  1.455E+00
   1    3    4     1     4    4.4499E+01  3.9314E-01   4.4106E+01  0.000E+00  0.000E+00  0.000E+00  1.07877E+03  1.363E+00  1.624E+01  9.011E-02  1.454E+00
   1    4    5     2     1    4.2106E+01  3.6245E-01   4.1743E+01  0.000E+00  0.000E+00  0.000E+00  1.07358E+03  1.647E+00  1.200E+01  7.800E-02  1.549E+00
   1    5    6     2     2    4.1743E+01  2.7835E-01   4.1465E+01  0.000E+00  0.000E+00  0.000E+00  1.06815E+03  1.639E+00  1.200E+01  6.000E-02  1.546E+00
   1    6    6     2     3    4.1465E+01  2.7796E-01   4.1187E+01  0.000E+00  0.000E+00  0.000E+00  1.06343E+03  1.633E+00  1.200E+01  6.000E-02  1.544E+00
   1    7    6     2     4    4.1187E+01  2.7756E-01   4.0909E+01  0.000E+00  0.000E+00  0.000E+00  1.05870E+03  1.626E+00  1.200E+01  6.000E-02  1.542E+00
   1    8    6     2     5    4.0909E+01  2.7716E-01   4.0632E+01  0.000E+00  0.000E+00  0.000E+00  1.05398E+03  1.619E+00  1.200E+01  6.000E-02  1.540E+00
   1    3    5     3     1    2.0000E+00  2.8252E-01   1.7175E+00  0.000E+00  0.000E+00  0.000E+00  1.07555E+03  1.909E+00  9.636E+00  7.227E-02  1.955E+00
   1    3    6     3     2    1.7175E+00  2.4905E-01   1.4684E+00  0.000E+00  0.000E+00  0.000E+00  1.07264E+03  1.727E+00  8.909E+00  6.682E-02  1.864E+00
   1    3    7     3     3    1.4684E+00  1.9718E-01   1.2712E+00  0.000E+00  0.000E+00  0.000E+00  1.06987E+03  1.555E+00  8.218E+00  5.547E-02  1.777E+00
   1    4    8     3     4    1.2712E+00  2.2567E-01   1.0456E+00  0.000E+00  0.000E+00  0.000E+00  1.06682E+03  1.364E+00  7.455E+00  6.709E-02  1.682E+00
   1    5    8     3     5    1.0456E+00  1.5790E-01   8.8768E-01  0.000E+00  0.000E+00  0.000E+00  1.06362E+03  1.164E+00  6.655E+00  4.991E-02  1.582E+00
   1    6    8     3     6    8.8768E-01  5.5980E-02   8.3170E-01  0.000E+00  0.000E+00  0.000E+00  1.06158E+03  1.036E+00  6.145E+00  1.844E-02  1.518E+00
   1    5   10     4     1    1.0000E+01  9.0919E-02   9.9091E+00  0.000E+00  0.000E+00  0.000E+00  1.07836E+03  6.368E-01  1.000E+01  2.500E-02  1.212E+00
   1    5    9     4     2    9.9091E+00  1.8158E-01   9.7275E+00  0.000E+00  0.000E+00  0.000E+00  1.07154E+03  6.315E-01  1.000E+01  5.000E-02  1.211E+00
   1    6    8     4     3    9.7275E+00  1.2689E-01   9.6006E+00  0.000E+00  0.000E+00  0.000E+00  1.06381E+03  6.256E-01  1.000E+01  3.500E-02  1.209E+00
   1    6    8     5     1    1.0432E+01  2.2686E-01   1.0205E+01  0.000E+00  0.000E+00  0.000E+00  1.05868E+03  6.790E-01  1.542E+01  6.166E-02  1.226E+00
   1    7    7     5     2    1.0205E+01  2.7894E-01   9.9265E+00  0.000E+00  0.000E+00  0.000E+00  1.05417E+03  6.732E-01  1.519E+01  7.594E-02  1.224E+00
   1    8    7     5     3    9.9265E+00  1.9221E-01   9.7343E+00  0.000E+00  0.000E+00  0.000E+00  1.04992E+03  6.676E-01  1.497E+01  5.241E-02  1.223E+00
   1    8    6     5     4    9.7343E+00  1.3577E-01   9.5985E+00  0.000E+00  0.000E+00  0.000E+00  1.04691E+03  6.637E-01  1.482E+01  3.706E-02  1.221E+00
   1    9    6     6     1    9.5985E+00  2.2097E-01   9.3776E+00  0.000E+00  0.000E+00  0.000E+00  1.04341E+03  6.828E-01  1.200E+01  6.000E-02  1.228E+00
   1   10    7     6     2    9.3776E+00  2.2039E-01   9.1572E+00  0.000E+00  0.000E+00  0.000E+00  1.03885E+03  6.732E-01  1.200E+01  6.000E-02  1.224E+00
   1   11    7     6     3    9.1572E+00  2.1981E-01   8.9374E+00  0.000E+00  0.000E+00  0.000E+00  1.03430E+03  6.636E-01  1.200E+01  6.000E-02  1.221E+00
   1   12    7     6     4    8.9374E+00  2.1923E-01   8.7181E+00  0.000E+00  0.000E+00  0.000E+00  1.02974E+03  6.539E-01  1.200E+01  6.000E-02  1.218E+00
   1   13    7     6     5    8.7181E+00 -1.1200E-01   8.8301E+00  0.000E+00  0.000E+00  0.000E+00  1.02656E+03  6.515E-01  1.200E+01  2.400E-01 -1.556E-01
   1   14    9     7     1    1.5000E+02  1.3395E+00   1.4866E+02  0.000E+00  0.000E+00  0.000E+00  1.03987E+03  2.288E+00  5.529E+01  5.593E-01  7.983E-01
   1   13    8     7     2    1.4866E+02  1.8406E+00   1.4682E+02  0.000E+00  0.000E+00  0.000E+00  1.03478E+03  2.279E+00  5.526E+01  6.148E-01  9.980E-01
   1   13    7     7     3    1.4682E+02  1.4869E+00   1.4533E+02  0.000E+00  0.000E+00  0.000E+00  1.02969E+03  2.270E+00  5.522E+01  5.584E-01  8.875E-01
   1   13    6     8     1    1.5416E+02  8.4224E-01   1.5332E+02  0.000E+00  0.000E+00  0.000E+00  1.02472E+03  2.843E+00  4.122E+01  4.201E-01  6.683E-01
   1   13    5     8     2    1.5332E+02  1.1720E-01   1.5320E+02  0.000E+00  0.000E+00  0.000E+00  1.01846E+03  2.840E+00  4.118E+01  4.196E-01  9.310E-02
   1   13    4     8     3    1.5320E+02 -2.6032E+00   1.5581E+02  0.000E+00  0.000E+00  0.000E+00  1.01222E+03  2.848E+00  4.130E+01  4.209E+00 -2.062E-01
   1   13    3     8     4    1.5581E+02 -3.7230E+00   1.5953E+02  0.000E+00  0.000E+00  0.000E+00  1.00599E+03  2.870E+00  4.162E+01  4.241E+00 -2.926E-01
   1   13    2     8     5    1.5953E+02 -2.6107E+00   1.6214E+02  0.000E+00  0.000E+00  0.000E+00  9.99766E+02  2.891E+00  4.193E+01  4.272E+00 -2.037E-01
   1   13    1     8     6    1.6214E+02 -2.0104E+00   1.6415E+02  0.000E+00  0.000E+00  0.000E+00  9.94782E+02  2.907E+00  4.215E+01  2.577E+00 -2.600E-01
   1    8    6     9     1    4.0632E+01  0.0000E+00   4.0632E+01  0.000E+00  0.000E+00  0.000E+00  1.08401E+03  5.255E+00  4.000E+00  0.000E+00  2.752E+00
   1    8    5     9     2    4.0632E+01  0.0000E+00   4.0632E+01  0.000E+00  0.000E+00  0.000E+00  1.08351E+03  5.255E+00  4.000E+00  0.000E+00  2.752E+00





UNSATURATED ZONE PACKAGE VOLUMETRIC BUDGET FOR  TIME STEP    30 STRESS PERIOD   33
  ------------------------------------------------------------------------------



     CUMULATIVE VOLUMES      L**3       RATES FOR THIS TIME STEP      L**3/T
     ------------------                 ------------------------

           IN:                                      IN:
           ---                                      ---
        INFILTRATION =  1531730396.8142          INFILTRATION =          52.9510

          OUT:                                     OUT:
          ----                                     ----
              UZF ET =  1436417678.8577                UZF ET =          52.8417
        UZF RECHARGE =     1188922.5148          UZF RECHARGE =       0.0000E+00

            IN - OUT =    94123795.4417              IN - OUT =           0.1092

          STORAGE:                                 STORAGE:
          --------                                 --------
      STORAGE CHANGE =    94124765.0307        STORAGE CHANGE =           0.1092

 PERCENT DISCREPANCY IS DIFFERENCE BETWEEN IN-OUT MINUS CHANGE IN STORAGE
 DIVIDED BY THE AVERAGE OF IN AND OUT TIMES 100

 PERCENT DISCREPANCY =          -0.00     PERCENT DISCREPANCY =           0.00






1
  VOLUMETRIC BUDGET FOR AGRICULTURAL FIELDS AT TIME STEP   30, STRESS PERIOD  33
  ------------------------------------------------------------------------------

     CUMULATIVE VOLUMES      L**3       RATES FOR THIS TIME STEP      L**3/T
     ------------------                 ------------------------

           IN:                                      IN:
           ---                                      ---
               AG WELLS  =   218905344.0000                 AG WELLS  =           7.9106
      DIVERSION SEGMENTS =   941799808.0000        DIVERSION SEGMENTS =          40.6321
           GW IRRIGATION =           0.0000             GW IRRIGATION =           0.0000
           SW IRRIGATION =           0.0000             SW IRRIGATION =           0.0000
        SYSTEM LOSSES GW =           0.0000          SYSTEM LOSSES GW =           0.0000
        SYSTEM LOSSES SW =           0.0000          SYSTEM LOSSES SW =           0.0000

                TOTAL IN =  1160705152.0000                  TOTAL IN =          48.5427

          OUT:                                     OUT:
          ----                                     ----
               AG WELLS  =           0.0000                 AG WELLS  =           0.0000
      DIVERSION SEGMENTS =           0.0000        DIVERSION SEGMENTS =           0.0000
           GW IRRIGATION =   218905344.0000             GW IRRIGATION =           7.9106
           SW IRRIGATION =   941818688.0000             SW IRRIGATION =          40.6329
        SYSTEM LOSSES GW =           0.0000          SYSTEM LOSSES GW =           0.0000
        SYSTEM LOSSES SW =           0.0000          SYSTEM LOSSES SW =           0.0000

               TOTAL OUT =  1160723968.0000                 TOTAL OUT =          48.5435

                IN - OUT =      -18816.0000                  IN - OUT =      -8.1253E-04

     PERCENT DISCREPANCY =          -0.00         PERCENT DISCREPANCY =          -0.00



1
  VOLUMETRIC BUDGET FOR ENTIRE MODEL AT END OF TIME STEP   30, STRESS PERIOD  33
  ------------------------------------------------------------------------------

     CUMULATIVE VOLUMES      L**3       RATES FOR THIS TIME STEP      L**3/T
     ------------------                 ------------------------

           IN:                                      IN:
           ---                                      ---
             STORAGE     =   354175360.0000               STORAGE     =           7.4038
       CONSTANT HEAD     =           0.0000         CONSTANT HEAD     =           0.0000
     HEAD DEP BOUNDS     =    24077912.0000       HEAD DEP BOUNDS     =           0.2860
      STREAM LEAKAGE     =  1006883456.0000        STREAM LEAKAGE     =          12.0248
        UZF RECHARGE     =     1188922.5000          UZF RECHARGE     =           0.0000
               GW ET     =           0.0000                 GW ET     =           0.0000
     SURFACE LEAKAGE     =           0.0000       SURFACE LEAKAGE     =           0.0000
           AG WELLS      =           0.0000             AG WELLS      =           0.0000

                TOTAL IN =  1386325632.0000                  TOTAL IN =          19.7146

          OUT:                                     OUT:
          ----                                     ----
             STORAGE     =   225298592.0000               STORAGE     =           0.4554
       CONSTANT HEAD     =           0.0000         CONSTANT HEAD     =           0.0000
     HEAD DEP BOUNDS     =    24498242.0000       HEAD DEP BOUNDS     =           0.2874
      STREAM LEAKAGE     =   914283840.0000        STREAM LEAKAGE     =          11.0593
        UZF RECHARGE     =           0.0000          UZF RECHARGE     =           0.0000
               GW ET     =     3295915.0000                 GW ET     =           0.0000
     SURFACE LEAKAGE     =           0.0000       SURFACE LEAKAGE     =           0.0000
           AG WELLS      =   218905344.0000             AG WELLS      =           7.9106

               TOTAL OUT =  1386281856.0000                 TOTAL OUT =          19.7127

                IN - OUT =       43776.0000                  IN - OUT =       1.9245E-03

     PERCENT DISCREPANCY =           0.00         PERCENT DISCREPANCY =           0.01






         TIME SUMMARY AT END OF TIME STEP   30 IN STRESS PERIOD   33
                    SECONDS     MINUTES      HOURS       DAYS        YEARS
                    -----------------------------------------------------------
   TIME STEP LENGTH  87667.      1461.1      24.352      1.0147     2.77799E-03
 STRESS PERIOD TIME 2.63000E+06  43833.      730.56      30.440     8.33397E-02
         TOTAL TIME 8.42463E+07 1.40410E+06  23402.      975.07      2.6696    
1
1
                            STRESS PERIOD NO.   34, LENGTH =   2630000.    
                            -----------------------------------------------

                              NUMBER OF TIME STEPS =    30

                               MULTIPLIER FOR DELT =     1.000

                            INITIAL TIME STEP SIZE =   87666.66    

 REUSING NON-PARAMETER GHB CELLS FROM LAST STRESS PERIOD

      2 GHB CELLS

 REUSING STREAM SEGMENT DATA FROM LAST STRESS PERIOD



            AREAL INFILTRATION RATE
 READING ON UNIT   19 WITH FORMAT: (10F4.0)            

            1           2           3           4           5           6           7           8           9          10
 ........................................................................................................................
   1   1.2000E-09   0.000       0.000       0.000       0.000       0.000       0.000       0.000       0.000       0.000    
   2   2.1000E-09  2.0000E-09  8.0000E-10  8.5000E-09   0.000       0.000       0.000       0.000       0.000       0.000    
   3   5.0000E-10  1.1000E-09  8.8000E-09  5.5000E-09   0.000       0.000       0.000       0.000       0.000       0.000    
   4   8.5000E-09  1.1000E-09  1.1000E-09  1.1000E-09  2.0000E-09   0.000       0.000       0.000       0.000       0.000    
   5   8.5000E-09  1.1000E-09  1.1000E-09  1.1000E-09  1.1000E-09   0.000       0.000       0.000       0.000       0.000    
   6   8.5000E-09  5.2000E-09  2.1000E-09  1.1000E-09  1.5000E-09   0.000       0.000       0.000       0.000       0.000    
   7   8.5000E-09  5.2000E-09  2.1000E-09  1.2000E-09  2.0000E-09   0.000       0.000       0.000       0.000       0.000    
   8   5.0000E-10  5.2000E-09  2.1000E-09  1.2000E-09  5.0000E-09   0.000       0.000       0.000       0.000       0.000    
   9   5.0000E-10  5.2000E-09  2.1000E-09  1.2000E-09  5.0000E-09   0.000       0.000       0.000       0.000       0.000    
  10   5.0000E-10  5.2000E-09  2.1000E-09  1.2000E-09  5.8000E-09   0.000       0.000       0.000       0.000       0.000    
  11   1.0000E-10  1.1000E-09  1.1000E-09  1.2000E-09  5.0000E-09   0.000       0.000       0.000       0.000       0.000    
  12   1.1000E-09  1.1000E-09  1.1000E-09  1.1000E-09  2.0000E-09   0.000       0.000       0.000       0.000       0.000    
  13   1.1000E-09  2.2000E-09  2.2000E-09  2.1000E-09  1.0000E-09   0.000       0.000       0.000       0.000       0.000    
  14   2.0000E-10  5.5000E-09  5.5000E-09  5.2000E-09  1.0000E-09   0.000       0.000       0.000       0.000       0.000    
  15    0.000      8.8000E-09  8.8000E-09   0.000       0.000       0.000       0.000       0.000       0.000       0.000    

                  ET RATE =  7.500000E-08

 USING ET EXTINCTION DEPTH FROM PREVIOUS STRESS PERIOD. CURRENT PERIOD IS:      34

 USING EXTINCTION WATER CONTENT FROM PREVIOUS STRESS PERIOD. CURRENT PERIOD IS:      34

 USING AIR ENTRY PRESSURE FROM PREVIOUS STRESS PERIOD. CURRENT PERIOD IS:      34

 USING ROOT PRESSURE HEAD FROM PREVIOUS STRESS PERIOD. CURRENT PERIOD IS:      34

 USING ROOT ACTIVITY FROM PREVIOUS STRESS PERIOD. CURRENT PERIOD IS:      34

 PROCESSING AG STRESS PERIOD DATA

 READING AG STRESS PERIOD DATA

 READING IRRIGATION SEGMENT

 READING IRRIGATION WELL

 READING SUPPLEMENTAL WELL

 END PROCESSING AG STRESS PERIOD DATA OPTIONS
 
 SOLVING FOR HEAD 
                                                   Max.-Head-Change                         Max.-Flux-Residual
  Residual-Control   Outer-Iter.   Inner-Iter.     Column Row Layer    Maximum-Head-Change  Column Row Layer    Maximum-Flux-Residual          L2-NORM 
          0                 1           2             5    6     1       0.1616807321E-01       4   13    1         0.9102467848E+00      0.2630194851E+01
          0                 2           2             4   13     1      -0.4386466116E-02       4   13    1        -0.2591740779E+00      0.5243761851E+00
          0                 3           2             2   13     1      -0.5516026441E-03       4   13    1        -0.3254239998E-01      0.6070505467E-01
          0                 4           2             4   13     1      -0.2590462612E-03       4   13    1        -0.1529226521E-01      0.2660308986E-01
          0                 5           2             4   13     1      -0.1307300561E-03       4   13    1        -0.7716276244E-02      0.1347838600E-01
          0                 6           1             4   13     1      -0.6557198755E-04       4   13    1        -0.3870374451E-02      0.6746645475E-02

    ------------------------------------------------
       NWT REQUIRED            6 OUTER ITERATIONS 
       AND A TOTAL OF         11 INNER ITERATIONS.
    ------------------------------------------------

 NO OUTPUT CONTROL FOR STRESS PERIOD   34   TIME STEP    1
 
 SOLVING FOR HEAD 
                                                   Max.-Head-Change                         Max.-Flux-Residual
  Residual-Control   Outer-Iter.   Inner-Iter.     Column Row Layer    Maximum-Head-Change  Column Row Layer    Maximum-Flux-Residual          L2-NORM 
          0                 1           2             5    6     1       0.1555804234E-01       5    6    1         0.8402899706E+00      0.2461080163E+01
          0                 2           2             4   13     1      -0.4227617370E-02       4   13    1        -0.2496655795E+00      0.4772118351E+00
          0                 3           2             4   13     1      -0.5628296584E-03       4   13    1        -0.3320757029E-01      0.6047004560E-01
          0                 4           2             4   13     1      -0.2549067435E-03       4   13    1        -0.1504264436E-01      0.2619720971E-01
          0                 5           2             4   13     1      -0.1295541323E-03       4   13    1        -0.7644401209E-02      0.1333912132E-01
          0                 6           1             4   13     1      -0.6472725815E-04       4   13    1        -0.3819159214E-02      0.6663548909E-02

    ------------------------------------------------
       NWT REQUIRED            6 OUTER ITERATIONS 
       AND A TOTAL OF         11 INNER ITERATIONS.
    ------------------------------------------------

 NO OUTPUT CONTROL FOR STRESS PERIOD   34   TIME STEP    2
 
 SOLVING FOR HEAD 
                                                   Max.-Head-Change                         Max.-Flux-Residual
  Residual-Control   Outer-Iter.   Inner-Iter.     Column Row Layer    Maximum-Head-Change  Column Row Layer    Maximum-Flux-Residual          L2-NORM 
          0                 1           2             5    6     1       0.1497995187E-01       5    6    1         0.8085941272E+00      0.2218091810E+01
          0                 2           2             4   13     1      -0.3808375663E-02       4   13    1        -0.2246371065E+00      0.4379433223E+00
          0                 3           2             4   13     1      -0.5844244900E-03       4   13    1        -0.3444699864E-01      0.6226423676E-01
          0                 4           2             4   13     1      -0.2481027172E-03       4   13    1        -0.1462478480E-01      0.2550702528E-01
          0                 5           2             4   13     1      -0.1272918941E-03       4   13    1        -0.7502675314E-02      0.1309773273E-01
          0                 6           1             4   13     1      -0.6357411195E-04       4   13    1        -0.3747015310E-02      0.6537987427E-02

    ------------------------------------------------
       NWT REQUIRED            6 OUTER ITERATIONS 
       AND A TOTAL OF         11 INNER ITERATIONS.
    ------------------------------------------------

 NO OUTPUT CONTROL FOR STRESS PERIOD   34   TIME STEP    3
 
 SOLVING FOR HEAD 
                                                   Max.-Head-Change                         Max.-Flux-Residual
  Residual-Control   Outer-Iter.   Inner-Iter.     Column Row Layer    Maximum-Head-Change  Column Row Layer    Maximum-Flux-Residual          L2-NORM 
          0                 1           2             5    6     1       0.1443474633E-01       5    6    1         0.7785543708E+00      0.2147906069E+01
          0                 2           2             4   13     1      -0.3754120740E-02       4   13    1        -0.2214218308E+00      0.4311945809E+00
          0                 3           2             4   13     1      -0.5899496883E-03       4   13    1        -0.3477389589E-01      0.6267052144E-01
          0                 4           2             4   13     1      -0.2456848656E-03       4   13    1        -0.1448212832E-01      0.2526791213E-01
          0                 5           2             4   13     1      -0.1264276434E-03       4   13    1        -0.7451829085E-02      0.1300518973E-01
          0                 6           1             4   13     1      -0.6308134001E-04       4   13    1        -0.3717854629E-02      0.6494335430E-02

    ------------------------------------------------
       NWT REQUIRED            6 OUTER ITERATIONS 
       AND A TOTAL OF         11 INNER ITERATIONS.
    ------------------------------------------------

 NO OUTPUT CONTROL FOR STRESS PERIOD   34   TIME STEP    4
 
 SOLVING FOR HEAD 
                                                   Max.-Head-Change                         Max.-Flux-Residual
  Residual-Control   Outer-Iter.   Inner-Iter.     Column Row Layer    Maximum-Head-Change  Column Row Layer    Maximum-Flux-Residual          L2-NORM 
          0                 1           2             5    6     1       0.1391983828E-01       5    6    1         0.7502031057E+00      0.2082166660E+01
          0                 2           2             4   13     1      -0.3704978000E-02       4   13    1        -0.2185104707E+00      0.4249311749E+00
          0                 3           2             4   13     1      -0.5952867643E-03       4   13    1        -0.3508952183E-01      0.6307632957E-01
          0                 4           2             4   13     1      -0.2434269560E-03       4   13    1        -0.1434892893E-01      0.2504292905E-01
          0                 5           2             4   13     1      -0.1256048675E-03       4   13    1        -0.7403247828E-02      0.1292476504E-01
          0                 6           1             4   13     1      -0.6261173973E-04       4   13    1        -0.3690254915E-02      0.6443586168E-02

    ------------------------------------------------
       NWT REQUIRED            6 OUTER ITERATIONS 
       AND A TOTAL OF         11 INNER ITERATIONS.
    ------------------------------------------------

 NO OUTPUT CONTROL FOR STRESS PERIOD   34   TIME STEP    5
 
 SOLVING FOR HEAD 
                                                   Max.-Head-Change                         Max.-Flux-Residual
  Residual-Control   Outer-Iter.   Inner-Iter.     Column Row Layer    Maximum-Head-Change  Column Row Layer    Maximum-Flux-Residual          L2-NORM 
          0                 1           2             5    6     1       0.1343374300E-01       5    6    1         0.7234558531E+00      0.2020517957E+01
          0                 2           2             4   13     1      -0.3660426749E-02       4   13    1        -0.2158720318E+00      0.4191124403E+00
          0                 3           2             4   13     1      -0.6004394124E-03       4   13    1        -0.3539411682E-01      0.6347869340E-01
          0                 4           2             4   13     1      -0.2412770368E-03       4   13    1        -0.1422211452E-01      0.2482722746E-01
          0                 5           2             4   13     1      -0.1248397923E-03       4   13    1        -0.7358150554E-02      0.1284698377E-01
          0                 6           1             4   13     1      -0.6220271225E-04       4   13    1        -0.3666151067E-02      0.6401594807E-02

    ------------------------------------------------
       NWT REQUIRED            6 OUTER ITERATIONS 
       AND A TOTAL OF         11 INNER ITERATIONS.
    ------------------------------------------------

 NO OUTPUT CONTROL FOR STRESS PERIOD   34   TIME STEP    6
 
 SOLVING FOR HEAD 
                                                   Max.-Head-Change                         Max.-Flux-Residual
  Residual-Control   Outer-Iter.   Inner-Iter.     Column Row Layer    Maximum-Head-Change  Column Row Layer    Maximum-Flux-Residual          L2-NORM 
          0                 1           2             5    7     1       0.1310669576E-01       5    6    1         0.6981859612E+00      0.1962617112E+01
          0                 2           2             4   13     1      -0.3619991401E-02       4   13    1        -0.2134781519E+00      0.4137026253E+00
          0                 3           2             4   13     1      -0.6054432910E-03       4   13    1        -0.3568982965E-01      0.6387874340E-01
          0                 4           2             4   13     1      -0.2392445677E-03       4   13    1        -0.1410243661E-01      0.2461344864E-01
          0                 5           2             4   13     1      -0.1241291334E-03       4   13    1        -0.7316051277E-02      0.1278399486E-01
          0                 6           1             4   13     1      -0.6182599706E-04       4   13    1        -0.3643961308E-02      0.6361643567E-02

    ------------------------------------------------
       NWT REQUIRED            6 OUTER ITERATIONS 
       AND A TOTAL OF         11 INNER ITERATIONS.
    ------------------------------------------------

 NO OUTPUT CONTROL FOR STRESS PERIOD   34   TIME STEP    7
 
 SOLVING FOR HEAD 
                                                   Max.-Head-Change                         Max.-Flux-Residual
  Residual-Control   Outer-Iter.   Inner-Iter.     Column Row Layer    Maximum-Head-Change  Column Row Layer    Maximum-Flux-Residual          L2-NORM 
          0                 1           2             5    7     1       0.1285218198E-01       5    7    1         0.6811921787E+00      0.1908157426E+01
          0                 2           2             4   13     1      -0.3587067090E-02       4   13    1        -0.2115284527E+00      0.4090273513E+00
          0                 3           2             4   13     1      -0.6074224903E-03       4   13    1        -0.3580730228E-01      0.6398775667E-01
          0                 4           2             4   13     1      -0.2369588460E-03       4   13    1        -0.1396731358E-01      0.2439100305E-01
          0                 5           2             4   13     1      -0.1231762391E-03       4   13    1        -0.7260118354E-02      0.1267586254E-01
          0                 6           1             4   13     1      -0.6131738113E-04       4   13    1        -0.3613961162E-02      0.6310487737E-02

    ------------------------------------------------
       NWT REQUIRED            6 OUTER ITERATIONS 
       AND A TOTAL OF         11 INNER ITERATIONS.
    ------------------------------------------------

 NO OUTPUT CONTROL FOR STRESS PERIOD   34   TIME STEP    8
 
 SOLVING FOR HEAD 
                                                   Max.-Head-Change                         Max.-Flux-Residual
  Residual-Control   Outer-Iter.   Inner-Iter.     Column Row Layer    Maximum-Head-Change  Column Row Layer    Maximum-Flux-Residual          L2-NORM 
          0                 1           2             4    7     1       0.1265557029E-01       5    7    1         0.6679627985E+00      0.1856871722E+01
          0                 2           2             4   13     1      -0.3552069055E-02       4   13    1        -0.2094567119E+00      0.4041988408E+00
          0                 3           2             4   13     1      -0.6134053144E-03       4   13    1        -0.3616064125E-01      0.6450662116E-01
          0                 4           2             4   13     1      -0.2352920150E-03       4   13    1        -0.1386917725E-01      0.2422323377E-01
          0                 5           2             4   13     1      -0.1226619658E-03       4   13    1        -0.7229839566E-02      0.1262132224E-01
          0                 6           1             4   13     1      -0.6104267729E-04       4   13    1        -0.3597774641E-02      0.6283021398E-02

    ------------------------------------------------
       NWT REQUIRED            6 OUTER ITERATIONS 
       AND A TOTAL OF         11 INNER ITERATIONS.
    ------------------------------------------------

 NO OUTPUT CONTROL FOR STRESS PERIOD   34   TIME STEP    9
 
 SOLVING FOR HEAD 
                                                   Max.-Head-Change                         Max.-Flux-Residual
  Residual-Control   Outer-Iter.   Inner-Iter.     Column Row Layer    Maximum-Head-Change  Column Row Layer    Maximum-Flux-Residual          L2-NORM 
          0                 1           2             4    7     1       0.1256768071E-01       4    7    1         0.6575708747E+00      0.1808474163E+01
          0                 2           2             4   13     1      -0.3524419915E-02       4   13    1        -0.2078237140E+00      0.4000687983E+00
          0                 3           2             4   13     1      -0.6159112439E-03       4   13    1        -0.3630857422E-01      0.6468802660E-01
          0                 4           2             4   13     1      -0.2332900956E-03       4   13    1        -0.1375115363E-01      0.2401839020E-01
          0                 5           2             4   13     1      -0.1218711103E-03       4   13    1        -0.7183227207E-02      0.1253972919E-01
          0                 6           1             4   13     1      -0.6061188745E-04       4   13    1        -0.3572396756E-02      0.6237905667E-02

    ------------------------------------------------
       NWT REQUIRED            6 OUTER ITERATIONS 
       AND A TOTAL OF         11 INNER ITERATIONS.
    ------------------------------------------------

 NO OUTPUT CONTROL FOR STRESS PERIOD   34   TIME STEP   10
 
 SOLVING FOR HEAD 
                                                   Max.-Head-Change                         Max.-Flux-Residual
  Residual-Control   Outer-Iter.   Inner-Iter.     Column Row Layer    Maximum-Head-Change  Column Row Layer    Maximum-Flux-Residual          L2-NORM 
          0                 1           2             4    7     1       0.1247365855E-01       4    7    1         0.6529991168E+00      0.1762775438E+01
          0                 2           2             4   13     1      -0.3487106891E-02       4   13    1        -0.2056201588E+00      0.3950881481E+00
          0                 3           2             4   13     1      -0.6277134384E-03       4   13    1        -0.3700471074E-01      0.6581282086E-01
          0                 4           2             4   13     1      -0.2326511409E-03       4   13    1        -0.1371346470E-01      0.2395496540E-01
          0                 5           2             4   13     1      -0.1219902926E-03       4   13    1        -0.7190255050E-02      0.1255110465E-01
          0                 6           1             4   13     1      -0.6062039695E-04       4   13    1        -0.3572897313E-02      0.6239777171E-02

    ------------------------------------------------
       NWT REQUIRED            6 OUTER ITERATIONS 
       AND A TOTAL OF         11 INNER ITERATIONS.
    ------------------------------------------------

 NO OUTPUT CONTROL FOR STRESS PERIOD   34   TIME STEP   11
 
 SOLVING FOR HEAD 
                                                   Max.-Head-Change                         Max.-Flux-Residual
  Residual-Control   Outer-Iter.   Inner-Iter.     Column Row Layer    Maximum-Head-Change  Column Row Layer    Maximum-Flux-Residual          L2-NORM 
          0                 1           2             4    7     1       0.1237439611E-01       4    7    1         0.6481241606E+00      0.1719559601E+01
          0                 2           2             4   13     1      -0.3468744646E-02       4   13    1        -0.2045337531E+00      0.3919246218E+00
          0                 3           2             4   13     1      -0.6269527370E-03       4   13    1        -0.3695933058E-01      0.6567683580E-01
          0                 4           2             4   13     1      -0.2303565409E-03       4   13    1        -0.1357808595E-01      0.2371951102E-01
          0                 5           2             4   13     1      -0.1209547382E-03       4   13    1        -0.7129167619E-02      0.1244284363E-01
          0                 6           1             4   13     1      -0.6011264387E-04       4   13    1        -0.3542948089E-02      0.6187906491E-02

    ------------------------------------------------
       NWT REQUIRED            6 OUTER ITERATIONS 
       AND A TOTAL OF         11 INNER ITERATIONS.
    ------------------------------------------------

 NO OUTPUT CONTROL FOR STRESS PERIOD   34   TIME STEP   12
 
 SOLVING FOR HEAD 
                                                   Max.-Head-Change                         Max.-Flux-Residual
  Residual-Control   Outer-Iter.   Inner-Iter.     Column Row Layer    Maximum-Head-Change  Column Row Layer    Maximum-Flux-Residual          L2-NORM 
          0                 1           2             4    7     1       0.1227044150E-01       4    7    1         0.6429775010E+00      0.1678636329E+01
          0                 2           2             4   13     1      -0.3446912446E-02       4   13    1        -0.2032439420E+00      0.3884776729E+00
          0                 3           2             4   13     1      -0.6303587117E-03       4   13    1        -0.3716031073E-01      0.6596875879E-01
          0                 4           2             4   13     1      -0.2287287168E-03       4   13    1        -0.1348209879E-01      0.2355365952E-01
          0                 5           1             4   13     1      -0.1203616491E-03       4   13    1        -0.7094212920E-02      0.1238224634E-01
          0                 6           1             4   13     1      -0.5980240635E-04       4   13    1        -0.3524673440E-02      0.6153407050E-02

    ------------------------------------------------
       NWT REQUIRED            6 OUTER ITERATIONS 
       AND A TOTAL OF         10 INNER ITERATIONS.
    ------------------------------------------------

 NO OUTPUT CONTROL FOR STRESS PERIOD   34   TIME STEP   13
 
 SOLVING FOR HEAD 
                                                   Max.-Head-Change                         Max.-Flux-Residual
  Residual-Control   Outer-Iter.   Inner-Iter.     Column Row Layer    Maximum-Head-Change  Column Row Layer    Maximum-Flux-Residual          L2-NORM 
          0                 1           2             4    7     1       0.1216177678E-01       4    7    1         0.6375580110E+00      0.1639840935E+01
          0                 2           2             4   13     1      -0.3430707383E-02       4   13    1        -0.2022863731E+00      0.3856047936E+00
          0                 3           2             4   13     1      -0.6309203212E-03       4   13    1        -0.3719352245E-01      0.6597997180E-01
          0                 4           2             4   13     1      -0.2286703156E-03       4   13    1        -0.1347865135E-01      0.2354501419E-01
          0                 5           1             4   13     1      -0.1184790391E-03       4   13    1        -0.6983248756E-02      0.1218877558E-01
          0                 6           1             4   13     1      -0.5898112002E-04       4   13    1        -0.3476282844E-02      0.6067592301E-02

    ------------------------------------------------
       NWT REQUIRED            6 OUTER ITERATIONS 
       AND A TOTAL OF         10 INNER ITERATIONS.
    ------------------------------------------------

 NO OUTPUT CONTROL FOR STRESS PERIOD   34   TIME STEP   14
 
 SOLVING FOR HEAD 
                                                   Max.-Head-Change                         Max.-Flux-Residual
  Residual-Control   Outer-Iter.   Inner-Iter.     Column Row Layer    Maximum-Head-Change  Column Row Layer    Maximum-Flux-Residual          L2-NORM 
          0                 1           2             4    7     1       0.1204918789E-01       4    7    1         0.6319090768E+00      0.1603014787E+01
          0                 2           2             4   13     1      -0.3413826916E-02       4   13    1        -0.2012896966E+00      0.3827143771E+00
          0                 3           2             4   13     1      -0.6332304312E-03       4   13    1        -0.3732980044E-01      0.6617125040E-01
          0                 4           2             4   13     1      -0.2293699026E-03       4   13    1        -0.1351987851E-01      0.2361526200E-01
          0                 5           1             4   13     1      -0.1165660024E-03       4   13    1        -0.6870488324E-02      0.1199137976E-01
          0                 6           1             4   13     1      -0.5816179358E-04       4   13    1        -0.3427977274E-02      0.5984432332E-02

    ------------------------------------------------
       NWT REQUIRED            6 OUTER ITERATIONS 
       AND A TOTAL OF         10 INNER ITERATIONS.
    ------------------------------------------------

 NO OUTPUT CONTROL FOR STRESS PERIOD   34   TIME STEP   15
 
 SOLVING FOR HEAD 
                                                   Max.-Head-Change                         Max.-Flux-Residual
  Residual-Control   Outer-Iter.   Inner-Iter.     Column Row Layer    Maximum-Head-Change  Column Row Layer    Maximum-Flux-Residual          L2-NORM 
          0                 1           2             4    7     1       0.1193341126E-01       4    7    1         0.6260714504E+00      0.1568030598E+01
          0                 2           2             4   13     1      -0.3397072923E-02       4   13    1        -0.2003010909E+00      0.3798784484E+00
          0                 3           2             4   13     1      -0.6365550559E-03       4   13    1        -0.3752586237E-01      0.6646979000E-01
          0                 4           2             4   13     1      -0.2302867294E-03       4   13    1        -0.1357389584E-01      0.2370902083E-01
          0                 5           1             4   13     1      -0.1147917855E-03       4   13    1        -0.6765922531E-02      0.1180815381E-01
          0                 6           1             4   13     1      -0.5743294223E-04       4   13    1        -0.3385021613E-02      0.5907388651E-02

    ------------------------------------------------
       NWT REQUIRED            6 OUTER ITERATIONS 
       AND A TOTAL OF         10 INNER ITERATIONS.
    ------------------------------------------------

 NO OUTPUT CONTROL FOR STRESS PERIOD   34   TIME STEP   16
 
 SOLVING FOR HEAD 
                                                   Max.-Head-Change                         Max.-Flux-Residual
  Residual-Control   Outer-Iter.   Inner-Iter.     Column Row Layer    Maximum-Head-Change  Column Row Layer    Maximum-Flux-Residual          L2-NORM 
          0                 1           2             4    7     1       0.1181459459E-01       4    7    1         0.6200537688E+00      0.1534745874E+01
          0                 2           2             4   13     1      -0.3381702960E-02       4   13    1        -0.1993945478E+00      0.3772163551E+00
          0                 3           2             4   13     1      -0.6398460403E-03       4   13    1        -0.3771989645E-01      0.6676790703E-01
          0                 4           2             4   13     1      -0.2312152135E-03       4   13    1        -0.1362861325E-01      0.2380413218E-01
          0                 5           1             4   13     1      -0.1130830165E-03       4   13    1        -0.6665201051E-02      0.1163317350E-01
          0                 6           1             4   13     1      -0.5673097992E-04       4   13    1        -0.3343649760E-02      0.5835497573E-02

    ------------------------------------------------
       NWT REQUIRED            6 OUTER ITERATIONS 
       AND A TOTAL OF         10 INNER ITERATIONS.
    ------------------------------------------------

 NO OUTPUT CONTROL FOR STRESS PERIOD   34   TIME STEP   17
 
 SOLVING FOR HEAD 
                                                   Max.-Head-Change                         Max.-Flux-Residual
  Residual-Control   Outer-Iter.   Inner-Iter.     Column Row Layer    Maximum-Head-Change  Column Row Layer    Maximum-Flux-Residual          L2-NORM 
          0                 1           2             4    7     1       0.1169314230E-01       4    7    1         0.6138784627E+00      0.1503042509E+01
          0                 2           2             4   13     1      -0.3369914925E-02       4   13    1        -0.1986993611E+00      0.3749385367E+00
          0                 3           2             4   13     1      -0.6413011752E-03       4   13    1        -0.3780570663E-01      0.6688379168E-01
          0                 4           2             4   13     1      -0.2317744891E-03       4   13    1        -0.1366156073E-01      0.2385929487E-01
          0                 5           1             4   13     1      -0.1113663758E-03       4   13    1        -0.6564031030E-02      0.1145545349E-01
          0                 6           1             4   13     1      -0.5600797310E-04       4   13    1        -0.3301035360E-02      0.5761361156E-02

    ------------------------------------------------
       NWT REQUIRED            6 OUTER ITERATIONS 
       AND A TOTAL OF         10 INNER ITERATIONS.
    ------------------------------------------------

 NO OUTPUT CONTROL FOR STRESS PERIOD   34   TIME STEP   18
 
 SOLVING FOR HEAD 
                                                   Max.-Head-Change                         Max.-Flux-Residual
  Residual-Control   Outer-Iter.   Inner-Iter.     Column Row Layer    Maximum-Head-Change  Column Row Layer    Maximum-Flux-Residual          L2-NORM 
          0                 1           2             4    7     1       0.1156942995E-01       4    7    1         0.6075665015E+00      0.1472825946E+01
          0                 2           2             4   13     1      -0.3356877428E-02       4   13    1        -0.1979309697E+00      0.3725846408E+00
          0                 3           2             4   13     1      -0.6445057061E-03       4   13    1        -0.3799461383E-01      0.6718055834E-01
          0                 4           2             4   13     1      -0.2326993848E-03       4   13    1        -0.1371608609E-01      0.2394568617E-01
          0                 5           1             4   13     1      -0.1098158742E-03       4   13    1        -0.6472625060E-02      0.1130327564E-01
          0                 6           1             4   13     1      -0.5537307565E-04       4   13    1        -0.3263620387E-02      0.5694579086E-02

    ------------------------------------------------
       NWT REQUIRED            6 OUTER ITERATIONS 
       AND A TOTAL OF         10 INNER ITERATIONS.
    ------------------------------------------------

 NO OUTPUT CONTROL FOR STRESS PERIOD   34   TIME STEP   19
 
 SOLVING FOR HEAD 
                                                   Max.-Head-Change                         Max.-Flux-Residual
  Residual-Control   Outer-Iter.   Inner-Iter.     Column Row Layer    Maximum-Head-Change  Column Row Layer    Maximum-Flux-Residual          L2-NORM 
          0                 1           2             4    7     1       0.1144380477E-01       4    7    1         0.6011373567E+00      0.1443987424E+01
          0                 2           2             4   13     1      -0.3347250243E-02       4   13    1        -0.1973637721E+00      0.3705947548E+00
          0                 3           2             4   13     1      -0.6458487648E-03       4   13    1        -0.3807374753E-01      0.6729408802E-01
          0                 4           2             4   13     1      -0.2332490359E-03       4   13    1        -0.1374849566E-01      0.2400473206E-01
          0                 5           1             4   13     1      -0.1082574805E-03       4   13    1        -0.6380778255E-02      0.1113572483E-01
          0                 6           1             4   13     1      -0.5468830934E-04       4   13    1        -0.3223251849E-02      0.5625692555E-02

    ------------------------------------------------
       NWT REQUIRED            6 OUTER ITERATIONS 
       AND A TOTAL OF         10 INNER ITERATIONS.
    ------------------------------------------------

 NO OUTPUT CONTROL FOR STRESS PERIOD   34   TIME STEP   20
 
 SOLVING FOR HEAD 
                                                   Max.-Head-Change                         Max.-Flux-Residual
  Residual-Control   Outer-Iter.   Inner-Iter.     Column Row Layer    Maximum-Head-Change  Column Row Layer    Maximum-Flux-Residual          L2-NORM 
          0                 1           2             4    7     1       0.1131685996E-01       4    7    1         0.5946238082E+00      0.1416444840E+01
          0                 2           2             4   13     1      -0.3336282803E-02       4   13    1        -0.1967179001E+00      0.3685207736E+00
          0                 3           2             4   13     1      -0.6488777740E-03       4   13    1        -0.3825229426E-01      0.6757511508E-01
          0                 4           2             4   13     1      -0.2341499515E-03       4   13    1        -0.1380157933E-01      0.2409711552E-01
          0                 5           1             4   13     1      -0.1068291613E-03       4   13    1        -0.6296589127E-02      0.1098894155E-01
          0                 6           1             4   13     1      -0.5413440087E-04       4   13    1        -0.3190628026E-02      0.5565404794E-02

    ------------------------------------------------
       NWT REQUIRED            6 OUTER ITERATIONS 
       AND A TOTAL OF         10 INNER ITERATIONS.
    ------------------------------------------------

 NO OUTPUT CONTROL FOR STRESS PERIOD   34   TIME STEP   21
 
 SOLVING FOR HEAD 
                                                   Max.-Head-Change                         Max.-Flux-Residual
  Residual-Control   Outer-Iter.   Inner-Iter.     Column Row Layer    Maximum-Head-Change  Column Row Layer    Maximum-Flux-Residual          L2-NORM 
          0                 1           2             4    7     1       0.1118834227E-01       4    7    1         0.5880122866E+00      0.1390111896E+01
          0                 2           2             4   13     1      -0.3328501424E-02       4   13    1        -0.1962599391E+00      0.3667892419E+00
          0                 3           2             4   13     1      -0.6500812921E-03       4   13    1        -0.3832318772E-01      0.6767478894E-01
          0                 4           2             4   13     1      -0.2346459608E-03       4   13    1        -0.1383079696E-01      0.2414598962E-01
          0                 5           1             4   13     1      -0.1053841836E-03       4   13    1        -0.6211438635E-02      0.1084043850E-01
          0                 6           1             4   13     1      -0.5348420636E-04       4   13    1        -0.3152277308E-02      0.5501529302E-02

    ------------------------------------------------
       NWT REQUIRED            6 OUTER ITERATIONS 
       AND A TOTAL OF         10 INNER ITERATIONS.
    ------------------------------------------------

 NO OUTPUT CONTROL FOR STRESS PERIOD   34   TIME STEP   22
 
 SOLVING FOR HEAD 
                                                   Max.-Head-Change                         Max.-Flux-Residual
  Residual-Control   Outer-Iter.   Inner-Iter.     Column Row Layer    Maximum-Head-Change  Column Row Layer    Maximum-Flux-Residual          L2-NORM 
          0                 1           2             4    7     1       0.1105881393E-01       4    7    1         0.5813339870E+00      0.1364911497E+01
          0                 2           2             4   13     1      -0.3313316206E-02       4   13    1        -0.1953658987E+00      0.3643926995E+00
          0                 3           2             4   13     1      -0.6573710293E-03       4   13    1        -0.3875294083E-01      0.6839285384E-01
          0                 4           2             4   13     1      -0.2364862655E-03       4   13    1        -0.1393927748E-01      0.2433476989E-01
          0                 5           1             4   13     1      -0.1043002492E-03       4   13    1        -0.6147525197E-02      0.1072949188E-01
          0                 6           1             4   13     1      -0.5310934560E-04       4   13    1        -0.3130210715E-02      0.5459748864E-02

    ------------------------------------------------
       NWT REQUIRED            6 OUTER ITERATIONS 
       AND A TOTAL OF         10 INNER ITERATIONS.
    ------------------------------------------------

 NO OUTPUT CONTROL FOR STRESS PERIOD   34   TIME STEP   23
 
 SOLVING FOR HEAD 
                                                   Max.-Head-Change                         Max.-Flux-Residual
  Residual-Control   Outer-Iter.   Inner-Iter.     Column Row Layer    Maximum-Head-Change  Column Row Layer    Maximum-Flux-Residual          L2-NORM 
          0                 1           2             4    7     1       0.1092852567E-01       4    7    1         0.5746032851E+00      0.1340767130E+01
          0                 2           2             4   13     1      -0.3308102100E-02       4   13    1        -0.1950596325E+00      0.3629746818E+00
          0                 3           2             4   13     1      -0.6576154869E-03       4   13    1        -0.3876723374E-01      0.6840410263E-01
          0                 4           2             4   13     1      -0.2368168965E-03       4   13    1        -0.1395879266E-01      0.2436334446E-01
          0                 5           1             4   13     1      -0.1029112337E-03       4   13    1        -0.6065649169E-02      0.1058638164E-01
          0                 6           1             4   13     1      -0.5251206168E-04       4   13    1        -0.3095007919E-02      0.5398135303E-02

    ------------------------------------------------
       NWT REQUIRED            6 OUTER ITERATIONS 
       AND A TOTAL OF         10 INNER ITERATIONS.
    ------------------------------------------------

 NO OUTPUT CONTROL FOR STRESS PERIOD   34   TIME STEP   24
 
 SOLVING FOR HEAD 
                                                   Max.-Head-Change                         Max.-Flux-Residual
  Residual-Control   Outer-Iter.   Inner-Iter.     Column Row Layer    Maximum-Head-Change  Column Row Layer    Maximum-Flux-Residual          L2-NORM 
          0                 1           2             4    7     1       0.1079798453E-01       4    7    1         0.5678479576E+00      0.1317637608E+01
          0                 2           2             4   13     1      -0.3301371007E-02       4   13    1        -0.1946639822E+00      0.3614565827E+00
          0                 3           2             4   13     1      -0.6594395769E-03       4   13    1        -0.3887471235E-01      0.6856959730E-01
          0                 4           2             4   13     1      -0.2374711970E-03       4   13    1        -0.1399735006E-01      0.2443078715E-01
          0                 5           1             4   13     1      -0.1016486195E-03       4   13    1        -0.5991227662E-02      0.1045615170E-01
          0                 6           1             4   13     1      -0.5199965466E-04       4   13    1        -0.3064808953E-02      0.5345571590E-02

    ------------------------------------------------
       NWT REQUIRED            6 OUTER ITERATIONS 
       AND A TOTAL OF         10 INNER ITERATIONS.
    ------------------------------------------------

 NO OUTPUT CONTROL FOR STRESS PERIOD   34   TIME STEP   25
 
 SOLVING FOR HEAD 
                                                   Max.-Head-Change                         Max.-Flux-Residual
  Residual-Control   Outer-Iter.   Inner-Iter.     Column Row Layer    Maximum-Head-Change  Column Row Layer    Maximum-Flux-Residual          L2-NORM 
          0                 1           2             4    7     1       0.1066684793E-01       4    7    1         0.5610499648E+00      0.1295434005E+01
          0                 2           2             4   13     1      -0.3297179022E-02       4   13    1        -0.1944179846E+00      0.3602171901E+00
          0                 3           2             4   13     1      -0.6597286330E-03       4   13    1        -0.3889166272E-01      0.6858471875E-01
          0                 4           2             4   13     1      -0.2377913297E-03       4   13    1        -0.1401622563E-01      0.2446136808E-01
          0                 5           1             4   13     1      -0.1077889548E-03       4   13    1        -0.6357810729E-02      0.1057190517E-01
          0                 6           1             2   13     1      -0.5022592696E-04       2   13    1        -0.2905588180E-02      0.5046878614E-02

    ------------------------------------------------
       NWT REQUIRED            6 OUTER ITERATIONS 
       AND A TOTAL OF         10 INNER ITERATIONS.
    ------------------------------------------------

 NO OUTPUT CONTROL FOR STRESS PERIOD   34   TIME STEP   26
 
 SOLVING FOR HEAD 
                                                   Max.-Head-Change                         Max.-Flux-Residual
  Residual-Control   Outer-Iter.   Inner-Iter.     Column Row Layer    Maximum-Head-Change  Column Row Layer    Maximum-Flux-Residual          L2-NORM 
          0                 1           2             4    7     1       0.1053587523E-01       4    7    1         0.5542506509E+00      0.1274121682E+01
          0                 2           2             4   13     1      -0.3291473262E-02       4   13    1        -0.1940829108E+00      0.3588653964E+00
          0                 3           2             4   13     1      -0.6614698843E-03       4   13    1        -0.3899422851E-01      0.6873467924E-01
          0                 4           2             4   13     1      -0.2384344277E-03       4   13    1        -0.1405413873E-01      0.2452150815E-01
          0                 5           1             4   13     1      -0.9921877060E-04       4   13    1        -0.5848009141E-02      0.1020514765E-01

    ------------------------------------------------
       NWT REQUIRED            5 OUTER ITERATIONS 
       AND A TOTAL OF          9 INNER ITERATIONS.
    ------------------------------------------------

 NO OUTPUT CONTROL FOR STRESS PERIOD   34   TIME STEP   27
 
 SOLVING FOR HEAD 
                                                   Max.-Head-Change                         Max.-Flux-Residual
  Residual-Control   Outer-Iter.   Inner-Iter.     Column Row Layer    Maximum-Head-Change  Column Row Layer    Maximum-Flux-Residual          L2-NORM 
          0                 1           2             4    7     1       0.1040468967E-01       4    7    1         0.5474302804E+00      0.1253470307E+01
          0                 2           2             4   13     1      -0.3286202819E-02       4   13    1        -0.1937733276E+00      0.3575980595E+00
          0                 3           2             4   13     1      -0.6665659212E-03       4   13    1        -0.3929455728E-01      0.6923625083E-01
          0                 4           2             4   13     1      -0.2408634091E-03       4   13    1        -0.1419721189E-01      0.2477457423E-01
          0                 5           1             4   13     1      -0.9500191249E-04       4   13    1        -0.5599470554E-02      0.9771028240E-02

    ------------------------------------------------
       NWT REQUIRED            5 OUTER ITERATIONS 
       AND A TOTAL OF          9 INNER ITERATIONS.
    ------------------------------------------------

 NO OUTPUT CONTROL FOR STRESS PERIOD   34   TIME STEP   28
 
 SOLVING FOR HEAD 
                                                   Max.-Head-Change                         Max.-Flux-Residual
  Residual-Control   Outer-Iter.   Inner-Iter.     Column Row Layer    Maximum-Head-Change  Column Row Layer    Maximum-Flux-Residual          L2-NORM 
          0                 1           2             4    7     1       0.1027401408E-01       4    7    1         0.5406284272E+00      0.1233635406E+01
          0                 2           2             4   13     1      -0.3283159543E-02       4   13    1        -0.1935949961E+00      0.3565776784E+00
          0                 3           2             4   13     1      -0.6700555717E-03       4   13    1        -0.3950008693E-01      0.6958126631E-01
          0                 4           2             4   13     1      -0.2428705260E-03       4   13    1        -0.1431555226E-01      0.2497585067E-01
          0                 5           1             4   13     1      -0.9094571119E-04       4   13    1        -0.5360347163E-02      0.9357281961E-02

    ------------------------------------------------
       NWT REQUIRED            5 OUTER ITERATIONS 
       AND A TOTAL OF          9 INNER ITERATIONS.
    ------------------------------------------------

 NO OUTPUT CONTROL FOR STRESS PERIOD   34   TIME STEP   29
 
 SOLVING FOR HEAD 
                                                   Max.-Head-Change                         Max.-Flux-Residual
  Residual-Control   Outer-Iter.   Inner-Iter.     Column Row Layer    Maximum-Head-Change  Column Row Layer    Maximum-Flux-Residual          L2-NORM 
          0                 1           2             4    7     1       0.1014345265E-01       4    7    1         0.5338234588E+00      0.1214563284E+01
          0                 2           2             4   13     1      -0.3278846120E-02       4   13    1        -0.1933419488E+00      0.3554590701E+00
          0                 3           2             4   13     1      -0.6745663486E-03       4   13    1        -0.3976588445E-01      0.7002735695E-01
          0                 4           2             4   13     1      -0.2450494338E-03       4   13    1        -0.1444396169E-01      0.2519780966E-01
          0                 5           1             4   13     1      -0.8723989492E-04       4   13    1        -0.5141929187E-02      0.8976897916E-02

    ------------------------------------------------
       NWT REQUIRED            5 OUTER ITERATIONS 
       AND A TOTAL OF          9 INNER ITERATIONS.
    ------------------------------------------------

 NO OUTPUT CONTROL FOR STRESS PERIOD   34   TIME STEP   30



 STREAM LISTING     PERIOD     34   STEP       30

 LAYER ROW COL. STREAM  RCH.  FLOW INTO     FLOW TO   FLOW OUT OF   OVRLND.     DIRECT     STREAM       STREAM     STREAM     STREAM   STREAMBED  STREAMBED
                SEG.NO.  NO.  STRM. RCH.    AQUIFER    STRM. RCH.    RUNOFF     PRECIP       ET          HEAD       DEPTH      WIDTH   CONDCTNC.   GRADIENT

   1    1    1     1     1    3.5249E+01  2.8720E-01   3.4962E+01  0.000E+00  0.000E+00  0.000E+00  1.09434E+03  1.294E+00  1.486E+01  6.688E-02  1.431E+00
   1    2    2     1     2    3.4962E+01  4.4466E-01   3.4517E+01  0.000E+00  0.000E+00  0.000E+00  1.08935E+03  1.291E+00  1.480E+01  1.036E-01  1.430E+00
   1    3    3     1     3    3.4517E+01  3.7911E-01   3.4138E+01  0.000E+00  0.000E+00  0.000E+00  1.08371E+03  1.288E+00  1.474E+01  8.841E-02  1.429E+00
   1    3    4     1     4    3.4138E+01  3.4901E-01   3.3789E+01  0.000E+00  0.000E+00  0.000E+00  1.07869E+03  1.285E+00  1.468E+01  8.145E-02  1.428E+00
   1    4    5     2     1    3.1789E+01  3.4244E-01   3.1446E+01  0.000E+00  0.000E+00  0.000E+00  1.07332E+03  1.390E+00  1.200E+01  7.800E-02  1.463E+00
   1    5    6     2     2    3.1446E+01  2.6294E-01   3.1184E+01  0.000E+00  0.000E+00  0.000E+00  1.06789E+03  1.382E+00  1.200E+01  6.000E-02  1.461E+00
   1    6    6     2     3    3.1184E+01  2.6252E-01   3.0921E+01  0.000E+00  0.000E+00  0.000E+00  1.06317E+03  1.375E+00  1.200E+01  6.000E-02  1.458E+00
   1    7    6     2     4    3.0921E+01  2.6210E-01   3.0659E+01  0.000E+00  0.000E+00  0.000E+00  1.05844E+03  1.368E+00  1.200E+01  6.000E-02  1.456E+00
   1    8    6     2     5    3.0659E+01  2.6168E-01   3.0397E+01  0.000E+00  0.000E+00  0.000E+00  1.05372E+03  1.361E+00  1.200E+01  6.000E-02  1.454E+00
   1    3    5     3     1    2.0000E+00  2.8252E-01   1.7175E+00  0.000E+00  0.000E+00  0.000E+00  1.07555E+03  1.909E+00  9.636E+00  7.227E-02  1.955E+00
   1    3    6     3     2    1.7175E+00  2.4905E-01   1.4684E+00  0.000E+00  0.000E+00  0.000E+00  1.07264E+03  1.727E+00  8.909E+00  6.682E-02  1.864E+00
   1    3    7     3     3    1.4684E+00  1.9718E-01   1.2712E+00  0.000E+00  0.000E+00  0.000E+00  1.06987E+03  1.555E+00  8.218E+00  5.547E-02  1.777E+00
   1    4    8     3     4    1.2712E+00  2.2567E-01   1.0456E+00  0.000E+00  0.000E+00  0.000E+00  1.06682E+03  1.364E+00  7.455E+00  6.709E-02  1.682E+00
   1    5    8     3     5    1.0456E+00  1.5790E-01   8.8768E-01  0.000E+00  0.000E+00  0.000E+00  1.06362E+03  1.164E+00  6.655E+00  4.991E-02  1.582E+00
   1    6    8     3     6    8.8768E-01  5.5980E-02   8.3170E-01  0.000E+00  0.000E+00  0.000E+00  1.06158E+03  1.036E+00  6.145E+00  1.844E-02  1.518E+00
   1    5   10     4     1    1.0000E+01  9.0919E-02   9.9091E+00  0.000E+00  0.000E+00  0.000E+00  1.07836E+03  6.368E-01  1.000E+01  2.500E-02  1.212E+00
   1    5    9     4     2    9.9091E+00  1.8158E-01   9.7275E+00  0.000E+00  0.000E+00  0.000E+00  1.07154E+03  6.315E-01  1.000E+01  5.000E-02  1.211E+00
   1    6    8     4     3    9.7275E+00  1.2689E-01   9.6006E+00  0.000E+00  0.000E+00  0.000E+00  1.06381E+03  6.256E-01  1.000E+01  3.500E-02  1.209E+00
   1    6    8     5     1    1.0432E+01  2.2686E-01   1.0205E+01  0.000E+00  0.000E+00  0.000E+00  1.05868E+03  6.790E-01  1.542E+01  6.166E-02  1.226E+00
   1    7    7     5     2    1.0205E+01  2.7894E-01   9.9265E+00  0.000E+00  0.000E+00  0.000E+00  1.05417E+03  6.732E-01  1.519E+01  7.594E-02  1.224E+00
   1    8    7     5     3    9.9265E+00  1.9221E-01   9.7343E+00  0.000E+00  0.000E+00  0.000E+00  1.04992E+03  6.676E-01  1.497E+01  5.241E-02  1.223E+00
   1    8    6     5     4    9.7343E+00  1.3577E-01   9.5985E+00  0.000E+00  0.000E+00  0.000E+00  1.04691E+03  6.637E-01  1.482E+01  3.706E-02  1.221E+00
   1    9    6     6     1    2.9059E+01  2.6020E-01   2.8798E+01  0.000E+00  0.000E+00  0.000E+00  1.04406E+03  1.337E+00  1.200E+01  6.000E-02  1.446E+00
   1   10    7     6     2    2.8798E+01  2.5976E-01   2.8539E+01  0.000E+00  0.000E+00  0.000E+00  1.03951E+03  1.329E+00  1.200E+01  6.000E-02  1.443E+00
   1   11    7     6     3    2.8539E+01  2.5933E-01   2.8279E+01  0.000E+00  0.000E+00  0.000E+00  1.03496E+03  1.322E+00  1.200E+01  6.000E-02  1.441E+00
   1   12    7     6     4    2.8279E+01  2.5890E-01   2.8020E+01  0.000E+00  0.000E+00  0.000E+00  1.03041E+03  1.315E+00  1.200E+01  6.000E-02  1.438E+00
   1   13    7     6     5    2.8020E+01  4.0600E-03   2.8016E+01  0.000E+00  0.000E+00  0.000E+00  1.02722E+03  1.311E+00  1.200E+01  2.400E-02  5.639E-02
   1   14    9     7     1    1.5000E+02  1.3399E+00   1.4866E+02  0.000E+00  0.000E+00  0.000E+00  1.03987E+03  2.288E+00  5.529E+01  5.593E-01  7.986E-01
   1   13    8     7     2    1.4866E+02  1.8429E+00   1.4682E+02  0.000E+00  0.000E+00  0.000E+00  1.03478E+03  2.279E+00  5.526E+01  6.148E-01  9.992E-01
   1   13    7     7     3    1.4682E+02  1.4735E+00   1.4534E+02  0.000E+00  0.000E+00  0.000E+00  1.02969E+03  2.270E+00  5.522E+01  5.584E-01  8.795E-01
   1   13    6     8     1    1.7336E+02  9.3072E-01   1.7243E+02  0.000E+00  0.000E+00  0.000E+00  1.02485E+03  2.972E+00  4.309E+01  4.391E-01  7.065E-01
   1   13    5     8     2    1.7243E+02  1.7257E-01   1.7226E+02  0.000E+00  0.000E+00  0.000E+00  1.01859E+03  2.968E+00  4.304E+01  4.386E-01  1.312E-01
   1   13    4     8     3    1.7226E+02 -2.4610E+00   1.7472E+02  0.000E+00  0.000E+00  0.000E+00  1.01235E+03  2.976E+00  4.315E+01  4.397E+00 -1.866E-01
   1   13    3     8     4    1.7472E+02 -3.6353E+00   1.7835E+02  0.000E+00  0.000E+00  0.000E+00  1.00612E+03  2.995E+00  4.343E+01  4.426E+00 -2.738E-01
   1   13    2     8     5    1.7835E+02 -2.5309E+00   1.8088E+02  0.000E+00  0.000E+00  0.000E+00  9.99890E+02  3.015E+00  4.371E+01  4.454E+00 -1.894E-01
   1   13    1     8     6    1.8088E+02 -1.9290E+00   1.8281E+02  0.000E+00  0.000E+00  0.000E+00  9.94904E+02  3.029E+00  4.391E+01  2.685E+00 -2.395E-01
   1    8    6     9     1    1.0937E+01  0.0000E+00   1.0937E+01  0.000E+00  0.000E+00  0.000E+00  1.08112E+03  2.373E+00  4.000E+00  0.000E+00  1.791E+00
   1    8    5     9     2    1.0937E+01  0.0000E+00   1.0937E+01  0.000E+00  0.000E+00  0.000E+00  1.08062E+03  2.373E+00  4.000E+00  0.000E+00  1.791E+00





UNSATURATED ZONE PACKAGE VOLUMETRIC BUDGET FOR  TIME STEP    30 STRESS PERIOD   34
  ------------------------------------------------------------------------------



     CUMULATIVE VOLUMES      L**3       RATES FOR THIS TIME STEP      L**3/T
     ------------------                 ------------------------

           IN:                                      IN:
           ---                                      ---
        INFILTRATION =  1572186367.9568          INFILTRATION =          15.3449

          OUT:                                     OUT:
          ----                                     ----
              UZF ET =  1476683145.7815                UZF ET =          15.2888
        UZF RECHARGE =     1188922.5148          UZF RECHARGE =       0.0000E+00

            IN - OUT =    94314299.6604              IN - OUT =       5.6100E-02

          STORAGE:                                 STORAGE:
          --------                                 --------
      STORAGE CHANGE =    94315269.2226        STORAGE CHANGE =       5.6100E-02

 PERCENT DISCREPANCY IS DIFFERENCE BETWEEN IN-OUT MINUS CHANGE IN STORAGE
 DIVIDED BY THE AVERAGE OF IN AND OUT TIMES 100

 PERCENT DISCREPANCY =          -0.00     PERCENT DISCREPANCY =           0.00






1
  VOLUMETRIC BUDGET FOR AGRICULTURAL FIELDS AT TIME STEP   30, STRESS PERIOD  34
  ------------------------------------------------------------------------------

     CUMULATIVE VOLUMES      L**3       RATES FOR THIS TIME STEP      L**3/T
     ------------------                 ------------------------

           IN:                                      IN:
           ---                                      ---
               AG WELLS  =   218905344.0000                 AG WELLS  =           0.0000
      DIVERSION SEGMENTS =   970663552.0000        DIVERSION SEGMENTS =          10.9372
           GW IRRIGATION =           0.0000             GW IRRIGATION =           0.0000
           SW IRRIGATION =           0.0000             SW IRRIGATION =           0.0000
        SYSTEM LOSSES GW =           0.0000          SYSTEM LOSSES GW =           0.0000
        SYSTEM LOSSES SW =           0.0000          SYSTEM LOSSES SW =           0.0000

                TOTAL IN =  1189568896.0000                  TOTAL IN =          10.9372

          OUT:                                     OUT:
          ----                                     ----
               AG WELLS  =           0.0000                 AG WELLS  =           0.0000
      DIVERSION SEGMENTS =           0.0000        DIVERSION SEGMENTS =           0.0000
           GW IRRIGATION =   218905344.0000             GW IRRIGATION =           0.0000
           SW IRRIGATION =   970683008.0000             SW IRRIGATION =          10.9374
        SYSTEM LOSSES GW =           0.0000          SYSTEM LOSSES GW =           0.0000
        SYSTEM LOSSES SW =           0.0000          SYSTEM LOSSES SW =           0.0000

               TOTAL OUT =  1189588352.0000                 TOTAL OUT =          10.9374

                IN - OUT =      -19456.0000                  IN - OUT =      -2.1839E-04

     PERCENT DISCREPANCY =          -0.00         PERCENT DISCREPANCY =          -0.00



1
  VOLUMETRIC BUDGET FOR ENTIRE MODEL AT END OF TIME STEP   30, STRESS PERIOD  34
  ------------------------------------------------------------------------------

     CUMULATIVE VOLUMES      L**3       RATES FOR THIS TIME STEP      L**3/T
     ------------------                 ------------------------

           IN:                                      IN:
           ---                                      ---
             STORAGE     =   360887744.0000               STORAGE     =           1.7356
       CONSTANT HEAD     =           0.0000         CONSTANT HEAD     =           0.0000
     HEAD DEP BOUNDS     =    24830154.0000       HEAD DEP BOUNDS     =           0.2860
      STREAM LEAKAGE     =  1038674048.0000        STREAM LEAKAGE     =          12.0549
        UZF RECHARGE     =     1188922.5000          UZF RECHARGE     =           0.0000
               GW ET     =           0.0000                 GW ET     =           0.0000
     SURFACE LEAKAGE     =           0.0000       SURFACE LEAKAGE     =           0.0000
           AG WELLS      =           0.0000             AG WELLS      =           0.0000

                TOTAL IN =  1425580800.0000                  TOTAL IN =          14.0766

          OUT:                                     OUT:
          ----                                     ----
             STORAGE     =   236925536.0000               STORAGE     =           3.2294
       CONSTANT HEAD     =           0.0000         CONSTANT HEAD     =           0.0000
     HEAD DEP BOUNDS     =    25257858.0000       HEAD DEP BOUNDS     =           0.2896
      STREAM LEAKAGE     =   941149632.0000        STREAM LEAKAGE     =          10.5561
        UZF RECHARGE     =           0.0000          UZF RECHARGE     =           0.0000
               GW ET     =     3295915.0000                 GW ET     =           0.0000
     SURFACE LEAKAGE     =           0.0000       SURFACE LEAKAGE     =           0.0000
           AG WELLS      =   218905344.0000             AG WELLS      =           0.0000

               TOTAL OUT =  1425534208.0000                 TOTAL OUT =          14.0751

                IN - OUT =       46592.0000                  IN - OUT =       1.4744E-03

     PERCENT DISCREPANCY =           0.00         PERCENT DISCREPANCY =           0.01






         TIME SUMMARY AT END OF TIME STEP   30 IN STRESS PERIOD   34
                    SECONDS     MINUTES      HOURS       DAYS        YEARS
                    -----------------------------------------------------------
   TIME STEP LENGTH  87667.      1461.1      24.352      1.0147     2.77799E-03
 STRESS PERIOD TIME 2.63000E+06  43833.      730.56      30.440     8.33397E-02
         TOTAL TIME 8.68762E+07 1.44794E+06  24132.      1005.5      2.7529    
1
1
                            STRESS PERIOD NO.   35, LENGTH =   2630000.    
                            -----------------------------------------------

                              NUMBER OF TIME STEPS =    30

                               MULTIPLIER FOR DELT =     1.000

                            INITIAL TIME STEP SIZE =   87666.66    

 REUSING NON-PARAMETER GHB CELLS FROM LAST STRESS PERIOD

      2 GHB CELLS

 REUSING STREAM SEGMENT DATA FROM LAST STRESS PERIOD



            AREAL INFILTRATION RATE
 READING ON UNIT   19 WITH FORMAT: (10F4.0)            

            1           2           3           4           5           6           7           8           9          10
 ........................................................................................................................
   1   1.2000E-09   0.000       0.000       0.000       0.000       0.000       0.000       0.000       0.000       0.000    
   2   2.1000E-09  2.0000E-09  8.0000E-10  8.5000E-09   0.000       0.000       0.000       0.000       0.000       0.000    
   3   5.0000E-10  1.1000E-09  8.8000E-09  5.5000E-09   0.000       0.000       0.000       0.000       0.000       0.000    
   4   8.5000E-09  1.1000E-09  1.1000E-09  1.1000E-09  2.0000E-09   0.000       0.000       0.000       0.000       0.000    
   5   8.5000E-09  1.1000E-09  1.1000E-09  1.1000E-09  1.1000E-09   0.000       0.000       0.000       0.000       0.000    
   6   8.5000E-09  5.2000E-09  2.1000E-09  1.1000E-09  1.5000E-09   0.000       0.000       0.000       0.000       0.000    
   7   8.5000E-09  5.2000E-09  2.1000E-09  1.2000E-09  2.0000E-09   0.000       0.000       0.000       0.000       0.000    
   8   5.0000E-10  5.2000E-09  2.1000E-09  1.2000E-09  5.0000E-09   0.000       0.000       0.000       0.000       0.000    
   9   5.0000E-10  5.2000E-09  2.1000E-09  1.2000E-09  5.0000E-09   0.000       0.000       0.000       0.000       0.000    
  10   5.0000E-10  5.2000E-09  2.1000E-09  1.2000E-09  5.8000E-09   0.000       0.000       0.000       0.000       0.000    
  11   1.0000E-10  1.1000E-09  1.1000E-09  1.2000E-09  5.0000E-09   0.000       0.000       0.000       0.000       0.000    
  12   1.1000E-09  1.1000E-09  1.1000E-09  1.1000E-09  2.0000E-09   0.000       0.000       0.000       0.000       0.000    
  13   1.1000E-09  2.2000E-09  2.2000E-09  2.1000E-09  1.0000E-09   0.000       0.000       0.000       0.000       0.000    
  14   2.0000E-10  5.5000E-09  5.5000E-09  5.2000E-09  1.0000E-09   0.000       0.000       0.000       0.000       0.000    
  15    0.000      8.8000E-09  8.8000E-09   0.000       0.000       0.000       0.000       0.000       0.000       0.000    

                  ET RATE =  5.000000E-09

 USING ET EXTINCTION DEPTH FROM PREVIOUS STRESS PERIOD. CURRENT PERIOD IS:      35

 USING EXTINCTION WATER CONTENT FROM PREVIOUS STRESS PERIOD. CURRENT PERIOD IS:      35

 USING AIR ENTRY PRESSURE FROM PREVIOUS STRESS PERIOD. CURRENT PERIOD IS:      35

 USING ROOT PRESSURE HEAD FROM PREVIOUS STRESS PERIOD. CURRENT PERIOD IS:      35

 USING ROOT ACTIVITY FROM PREVIOUS STRESS PERIOD. CURRENT PERIOD IS:      35

 PROCESSING AG STRESS PERIOD DATA

 READING AG STRESS PERIOD DATA

 READING IRRIGATION SEGMENT

 READING IRRIGATION WELL

 READING SUPPLEMENTAL WELL

 END PROCESSING AG STRESS PERIOD DATA OPTIONS
 
 SOLVING FOR HEAD 
                                                   Max.-Head-Change                         Max.-Flux-Residual
  Residual-Control   Outer-Iter.   Inner-Iter.     Column Row Layer    Maximum-Head-Change  Column Row Layer    Maximum-Flux-Residual          L2-NORM 
          0                 1           2             4    7     1       0.1001369024E-01       4    7    1         0.5270539654E+00      0.1196210584E+01
          0                 2           2             4    7     1      -0.9740607153E-03       4    7    1        -0.5270551181E-01      0.1255947757E+00
          0                 3           1             4    7     1       0.6632990629E-04       4    7    1         0.3689386329E-02      0.7654376487E-02

    ------------------------------------------------
       NWT REQUIRED            3 OUTER ITERATIONS 
       AND A TOTAL OF          5 INNER ITERATIONS.
    ------------------------------------------------

 NO OUTPUT CONTROL FOR STRESS PERIOD   35   TIME STEP    1
 
 SOLVING FOR HEAD 
                                                   Max.-Head-Change                         Max.-Flux-Residual
  Residual-Control   Outer-Iter.   Inner-Iter.     Column Row Layer    Maximum-Head-Change  Column Row Layer    Maximum-Flux-Residual          L2-NORM 
          0                 1           2             4    7     1       0.9884223194E-02       4    7    1         0.5202940988E+00      0.1104594453E+01
          0                 2           2             4    7     1      -0.9614670858E-03       4    7    1        -0.5202952416E-01      0.1143858151E+00
          0                 3           1             4    7     1       0.6547232684E-04       4    7    1         0.3642067190E-02      0.7793483952E-02

    ------------------------------------------------
       NWT REQUIRED            3 OUTER ITERATIONS 
       AND A TOTAL OF          5 INNER ITERATIONS.
    ------------------------------------------------

 NO OUTPUT CONTROL FOR STRESS PERIOD   35   TIME STEP    2
 
 SOLVING FOR HEAD 
                                                   Max.-Head-Change                         Max.-Flux-Residual
  Residual-Control   Outer-Iter.   Inner-Iter.     Column Row Layer    Maximum-Head-Change  Column Row Layer    Maximum-Flux-Residual          L2-NORM 
          0                 1           2             4    7     1       0.9755736216E-02       4    7    1         0.5135813607E+00      0.1065729143E+01
          0                 2           2             4    7     1      -0.9489687897E-03       4    7    1        -0.5135824929E-01      0.1087378833E+00
          0                 3           1             4    7     1       0.6462123911E-04       4    7    1         0.3595077928E-02      0.8011215077E-02

    ------------------------------------------------
       NWT REQUIRED            3 OUTER ITERATIONS 
       AND A TOTAL OF          5 INNER ITERATIONS.
    ------------------------------------------------

 NO OUTPUT CONTROL FOR STRESS PERIOD   35   TIME STEP    3
 
 SOLVING FOR HEAD 
                                                   Max.-Head-Change                         Max.-Flux-Residual
  Residual-Control   Outer-Iter.   Inner-Iter.     Column Row Layer    Maximum-Head-Change  Column Row Layer    Maximum-Flux-Residual          L2-NORM 
          0                 1           2             4    7     1       0.9628056800E-02       4    7    1         0.5069046599E+00      0.1048608078E+01
          0                 2           2             4    7     1      -0.9365490448E-03       4    7    1        -0.5069057797E-01      0.1069909606E+00
          0                 3           1             4    7     1       0.6377550066E-04       4    7    1         0.3548340929E-02      0.7905344056E-02

    ------------------------------------------------
       NWT REQUIRED            3 OUTER ITERATIONS 
       AND A TOTAL OF          5 INNER ITERATIONS.
    ------------------------------------------------

 NO OUTPUT CONTROL FOR STRESS PERIOD   35   TIME STEP    4
 
 SOLVING FOR HEAD 
                                                   Max.-Head-Change                         Max.-Flux-Residual
  Residual-Control   Outer-Iter.   Inner-Iter.     Column Row Layer    Maximum-Head-Change  Column Row Layer    Maximum-Flux-Residual          L2-NORM 
          0                 1           2             4    7     1       0.9501010255E-02       4    7    1         0.5002550519E+00      0.1032026464E+01
          0                 2           2             4    7     1      -0.9241908596E-03       4    7    1        -0.5002561579E-01      0.1052950855E+00
          0                 3           1             4    7     1       0.6293395441E-04       4    7    1         0.3501793579E-02      0.7803038018E-02

    ------------------------------------------------
       NWT REQUIRED            3 OUTER ITERATIONS 
       AND A TOTAL OF          5 INNER ITERATIONS.
    ------------------------------------------------

 NO OUTPUT CONTROL FOR STRESS PERIOD   35   TIME STEP    5
 
 SOLVING FOR HEAD 
                                                   Max.-Head-Change                         Max.-Flux-Residual
  Residual-Control   Outer-Iter.   Inner-Iter.     Column Row Layer    Maximum-Head-Change  Column Row Layer    Maximum-Flux-Residual          L2-NORM 
          0                 1           2             4    7     1       0.9375236821E-02       4    7    1         0.4936678181E+00      0.1015961559E+01
          0                 2           2             4    7     1      -0.9119565120E-03       4    7    1        -0.4936689095E-01      0.1036659543E+00
          0                 3           1             4    7     1       0.6210084106E-04       4    7    1         0.3455682828E-02      0.7705087806E-02

    ------------------------------------------------
       NWT REQUIRED            3 OUTER ITERATIONS 
       AND A TOTAL OF          5 INNER ITERATIONS.
    ------------------------------------------------

 NO OUTPUT CONTROL FOR STRESS PERIOD   35   TIME STEP    6
 
 SOLVING FOR HEAD 
                                                   Max.-Head-Change                         Max.-Flux-Residual
  Residual-Control   Outer-Iter.   Inner-Iter.     Column Row Layer    Maximum-Head-Change  Column Row Layer    Maximum-Flux-Residual          L2-NORM 
          0                 1           2             4    7     1       0.9250537966E-02       4    7    1         0.4871318147E+00      0.1000407462E+01
          0                 2           2             4    7     1      -0.8998266896E-03       4    7    1        -0.4871328903E-01      0.1020841358E+00
          0                 3           1             4    7     1       0.6127484519E-04       4    7    1         0.3409930683E-02      0.7609648816E-02

    ------------------------------------------------
       NWT REQUIRED            3 OUTER ITERATIONS 
       AND A TOTAL OF          5 INNER ITERATIONS.
    ------------------------------------------------

 NO OUTPUT CONTROL FOR STRESS PERIOD   35   TIME STEP    7
 
 SOLVING FOR HEAD 
                                                   Max.-Head-Change                         Max.-Flux-Residual
  Residual-Control   Outer-Iter.   Inner-Iter.     Column Row Layer    Maximum-Head-Change  Column Row Layer    Maximum-Flux-Residual          L2-NORM 
          0                 1           2             4    7     1       0.9126982987E-02       4    7    1         0.4806515279E+00      0.9853230625E+00
          0                 2           2             4    7     1      -0.8878081343E-03       4    7    1        -0.4806525871E-01      0.1005518499E+00
          0                 3           1             4    7     1       0.6045642618E-04       4    7    1         0.3364568543E-02      0.7516984027E-02

    ------------------------------------------------
       NWT REQUIRED            3 OUTER ITERATIONS 
       AND A TOTAL OF          5 INNER ITERATIONS.
    ------------------------------------------------

 NO OUTPUT CONTROL FOR STRESS PERIOD   35   TIME STEP    8
 
 SOLVING FOR HEAD 
                                                   Max.-Head-Change                         Max.-Flux-Residual
  Residual-Control   Outer-Iter.   Inner-Iter.     Column Row Layer    Maximum-Head-Change  Column Row Layer    Maximum-Flux-Residual          L2-NORM 
          0                 1           2             4    7     1       0.9004635836E-02       4    7    1         0.4742305506E+00      0.9706879196E+00
          0                 2           2             4    7     1      -0.8759070676E-03       4    7    1        -0.4742315927E-01      0.9906711655E-01
          0                 3           1             4    7     1       0.5964600838E-04       4    7    1         0.3319621610E-02      0.7426600279E-02

    ------------------------------------------------
       NWT REQUIRED            3 OUTER ITERATIONS 
       AND A TOTAL OF          5 INNER ITERATIONS.
    ------------------------------------------------

 NO OUTPUT CONTROL FOR STRESS PERIOD   35   TIME STEP    9
 
 SOLVING FOR HEAD 
                                                   Max.-Head-Change                         Max.-Flux-Residual
  Residual-Control   Outer-Iter.   Inner-Iter.     Column Row Layer    Maximum-Head-Change  Column Row Layer    Maximum-Flux-Residual          L2-NORM 
          0                 1           2             4    7     1       0.8883548266E-02       4    7    1         0.4678721985E+00      0.9564789664E+00
          0                 2           2             4    7     1      -0.8641285221E-03       4    7    1        -0.4678732226E-01      0.9762642711E-01
          0                 3           1             4    7     1       0.5884393378E-04       4    7    1         0.3275113023E-02      0.7339883083E-02

    ------------------------------------------------
       NWT REQUIRED            3 OUTER ITERATIONS 
       AND A TOTAL OF          5 INNER ITERATIONS.
    ------------------------------------------------

 NO OUTPUT CONTROL FOR STRESS PERIOD   35   TIME STEP   10
 
 SOLVING FOR HEAD 
                                                   Max.-Head-Change                         Max.-Flux-Residual
  Residual-Control   Outer-Iter.   Inner-Iter.     Column Row Layer    Maximum-Head-Change  Column Row Layer    Maximum-Flux-Residual          L2-NORM 
          0                 1           2             4    7     1       0.8763775457E-02       4    7    1         0.4615791547E+00      0.9426847253E+00
          0                 2           2             4    7     1      -0.8524778660E-03       4    7    1        -0.4615801606E-01      0.9621977214E-01
          0                 3           1             4    7     1       0.5805056687E-04       4    7    1         0.3231061555E-02      0.7253270214E-02

    ------------------------------------------------
       NWT REQUIRED            3 OUTER ITERATIONS 
       AND A TOTAL OF          5 INNER ITERATIONS.
    ------------------------------------------------

 NO OUTPUT CONTROL FOR STRESS PERIOD   35   TIME STEP   11
 
 SOLVING FOR HEAD 
                                                   Max.-Head-Change                         Max.-Flux-Residual
  Residual-Control   Outer-Iter.   Inner-Iter.     Column Row Layer    Maximum-Head-Change  Column Row Layer    Maximum-Flux-Residual          L2-NORM 
          0                 1           2             4    7     1       0.8645356311E-02       4    7    1         0.4553542805E+00      0.9292786827E+00
          0                 2           2             4    7     1      -0.8409588845E-03       4    7    1        -0.4553552678E-01      0.9486864689E-01
          0                 3           1             4    7     1       0.5726616727E-04       4    7    1         0.3187487316E-02      0.7175920180E-02

    ------------------------------------------------
       NWT REQUIRED            3 OUTER ITERATIONS 
       AND A TOTAL OF          5 INNER ITERATIONS.
    ------------------------------------------------

 NO OUTPUT CONTROL FOR STRESS PERIOD   35   TIME STEP   12
 
 SOLVING FOR HEAD 
                                                   Max.-Head-Change                         Max.-Flux-Residual
  Residual-Control   Outer-Iter.   Inner-Iter.     Column Row Layer    Maximum-Head-Change  Column Row Layer    Maximum-Flux-Residual          L2-NORM 
          0                 1           2             4    7     1       0.8528603289E-02       4    7    1         0.4492143745E+00      0.9162567486E+00
          0                 2           2             4    7     1      -0.8296403921E-03       4    7    1        -0.4492153433E-01      0.9362615967E-01
          0                 3           1             4    7     1       0.5649542041E-04       4    7    1         0.3144507855E-02      0.7104711193E-02

    ------------------------------------------------
       NWT REQUIRED            3 OUTER ITERATIONS 
       AND A TOTAL OF          5 INNER ITERATIONS.
    ------------------------------------------------

 NO OUTPUT CONTROL FOR STRESS PERIOD   35   TIME STEP   13
 
 SOLVING FOR HEAD 
                                                   Max.-Head-Change                         Max.-Flux-Residual
  Residual-Control   Outer-Iter.   Inner-Iter.     Column Row Layer    Maximum-Head-Change  Column Row Layer    Maximum-Flux-Residual          L2-NORM 
          0                 1           2             4    7     1       0.8412857289E-02       4    7    1         0.4431292494E+00      0.9035130740E+00
          0                 2           2             4    7     1      -0.8183430218E-03       4    7    1        -0.4431302002E-01      0.9227288367E-01
          0                 3           1             4    7     1       0.5572611181E-04       4    7    1         0.3101911851E-02      0.7021644740E-02

    ------------------------------------------------
       NWT REQUIRED            3 OUTER ITERATIONS 
       AND A TOTAL OF          5 INNER ITERATIONS.
    ------------------------------------------------

 NO OUTPUT CONTROL FOR STRESS PERIOD   35   TIME STEP   14
 
 SOLVING FOR HEAD 
                                                   Max.-Head-Change                         Max.-Flux-Residual
  Residual-Control   Outer-Iter.   Inner-Iter.     Column Row Layer    Maximum-Head-Change  Column Row Layer    Maximum-Flux-Residual          L2-NORM 
          0                 1           2             4    7     1       0.8298830720E-02       4    7    1         0.4371299845E+00      0.8911059991E+00
          0                 2           2             4    7     1      -0.8072513181E-03       4    7    1        -0.4371309168E-01      0.9102184884E-01
          0                 3           1             4    7     1       0.5497080811E-04       4    7    1         0.3059916864E-02      0.6946304849E-02

    ------------------------------------------------
       NWT REQUIRED            3 OUTER ITERATIONS 
       AND A TOTAL OF          5 INNER ITERATIONS.
    ------------------------------------------------

 NO OUTPUT CONTROL FOR STRESS PERIOD   35   TIME STEP   15
 
 SOLVING FOR HEAD 
                                                   Max.-Head-Change                         Max.-Flux-Residual
  Residual-Control   Outer-Iter.   Inner-Iter.     Column Row Layer    Maximum-Head-Change  Column Row Layer    Maximum-Flux-Residual          L2-NORM 
          0                 1           2             4    7     1       0.8186220971E-02       4    7    1         0.4312030471E+00      0.8790223486E+00
          0                 2           2             4    7     1      -0.7962974317E-03       4    7    1        -0.4312039607E-01      0.8980478244E-01
          0                 3           1             4    7     1       0.5422488899E-04       4    7    1         0.3018428160E-02      0.6873378654E-02

    ------------------------------------------------
       NWT REQUIRED            3 OUTER ITERATIONS 
       AND A TOTAL OF          5 INNER ITERATIONS.
    ------------------------------------------------

 NO OUTPUT CONTROL FOR STRESS PERIOD   35   TIME STEP   16
 
 SOLVING FOR HEAD 
                                                   Max.-Head-Change                         Max.-Flux-Residual
  Residual-Control   Outer-Iter.   Inner-Iter.     Column Row Layer    Maximum-Head-Change  Column Row Layer    Maximum-Flux-Residual          L2-NORM 
          0                 1           2             4    7     1       0.8075058536E-02       4    7    1         0.4253495704E+00      0.8672623556E+00
          0                 2           2             4    7     1      -0.7854843297E-03       4    7    1        -0.4253504651E-01      0.8862149867E-01
          0                 3           1             4    7     1       0.5348855726E-04       4    7    1         0.2977453702E-02      0.6802342854E-02

    ------------------------------------------------
       NWT REQUIRED            3 OUTER ITERATIONS 
       AND A TOTAL OF          5 INNER ITERATIONS.
    ------------------------------------------------

 NO OUTPUT CONTROL FOR STRESS PERIOD   35   TIME STEP   17
 
 SOLVING FOR HEAD 
                                                   Max.-Head-Change                         Max.-Flux-Residual
  Residual-Control   Outer-Iter.   Inner-Iter.     Column Row Layer    Maximum-Head-Change  Column Row Layer    Maximum-Flux-Residual          L2-NORM 
          0                 1           2             4    7     1       0.7965361979E-02       4    7    1         0.4195711358E+00      0.8558073623E+00
          0                 2           2             4    7     1      -0.7748138178E-03       4    7    1        -0.4195720119E-01      0.8746915416E-01
          0                 3           1             4    7     1       0.5276193505E-04       4    7    1         0.2937004513E-02      0.6733175357E-02

    ------------------------------------------------
       NWT REQUIRED            3 OUTER ITERATIONS 
       AND A TOTAL OF          5 INNER ITERATIONS.
    ------------------------------------------------

 NO OUTPUT CONTROL FOR STRESS PERIOD   35   TIME STEP   18
 
 SOLVING FOR HEAD 
                                                   Max.-Head-Change                         Max.-Flux-Residual
  Residual-Control   Outer-Iter.   Inner-Iter.     Column Row Layer    Maximum-Head-Change  Column Row Layer    Maximum-Flux-Residual          L2-NORM 
          0                 1           2             4    7     1       0.7857148859E-02       4    7    1         0.4138687053E+00      0.8446484020E+00
          0                 2           2             4    7     1      -0.7642876039E-03       4    7    1        -0.4138695626E-01      0.8634983076E-01
          0                 3           1             4    7     1       0.5204513928E-04       4    7    1         0.2897087376E-02      0.6666418581E-02

    ------------------------------------------------
       NWT REQUIRED            3 OUTER ITERATIONS 
       AND A TOTAL OF          5 INNER ITERATIONS.
    ------------------------------------------------

 NO OUTPUT CONTROL FOR STRESS PERIOD   35   TIME STEP   19
 
 SOLVING FOR HEAD 
                                                   Max.-Head-Change                         Max.-Flux-Residual
  Residual-Control   Outer-Iter.   Inner-Iter.     Column Row Layer    Maximum-Head-Change  Column Row Layer    Maximum-Flux-Residual          L2-NORM 
          0                 1           2             4    7     1       0.7750696367E-02       4    7    1         0.4082579735E+00      0.8337764697E+00
          0                 2           2             4    7     1      -0.7539326513E-03       4    7    1        -0.4082588120E-01      0.8525918809E-01
          0                 3           1             4    7     1       0.5134000606E-04       4    7    1         0.2857812134E-02      0.6600922821E-02

    ------------------------------------------------
       NWT REQUIRED            3 OUTER ITERATIONS 
       AND A TOTAL OF          5 INNER ITERATIONS.
    ------------------------------------------------

 NO OUTPUT CONTROL FOR STRESS PERIOD   35   TIME STEP   20
 
 SOLVING FOR HEAD 
                                                   Max.-Head-Change                         Max.-Flux-Residual
  Residual-Control   Outer-Iter.   Inner-Iter.     Column Row Layer    Maximum-Head-Change  Column Row Layer    Maximum-Flux-Residual          L2-NORM 
          0                 1           2             4    7     1       0.7645731343E-02       4    7    1         0.4027237446E+00      0.8231778364E+00
          0                 2           2             4    7     1      -0.7437223891E-03       4    7    1        -0.4027245645E-01      0.8419727142E-01
          0                 3           1             4    7     1       0.5064472531E-04       4    7    1         0.2819072417E-02      0.6537695048E-02

    ------------------------------------------------
       NWT REQUIRED            3 OUTER ITERATIONS 
       AND A TOTAL OF          5 INNER ITERATIONS.
    ------------------------------------------------

 NO OUTPUT CONTROL FOR STRESS PERIOD   35   TIME STEP   21
 
 SOLVING FOR HEAD 
                                                   Max.-Head-Change                         Max.-Flux-Residual
  Residual-Control   Outer-Iter.   Inner-Iter.     Column Row Layer    Maximum-Head-Change  Column Row Layer    Maximum-Flux-Residual          L2-NORM 
          0                 1           2             4    7     1       0.7542256504E-02       4    7    1         0.3972666393E+00      0.8128299799E+00
          0                 2           2             4    7     1      -0.7336570810E-03       4    7    1        -0.3972674410E-01      0.8316111404E-01
          0                 3           1             4    7     1       0.4995931478E-04       4    7    1         0.2780872509E-02      0.6475882163E-02

    ------------------------------------------------
       NWT REQUIRED            3 OUTER ITERATIONS 
       AND A TOTAL OF          5 INNER ITERATIONS.
    ------------------------------------------------

 NO OUTPUT CONTROL FOR STRESS PERIOD   35   TIME STEP   22
 
 SOLVING FOR HEAD 
                                                   Max.-Head-Change                         Max.-Flux-Residual
  Residual-Control   Outer-Iter.   Inner-Iter.     Column Row Layer    Maximum-Head-Change  Column Row Layer    Maximum-Flux-Residual          L2-NORM 
          0                 1           2             4    7     1       0.7440280200E-02       4    7    1         0.3918867984E+00      0.8027461436E+00
          0                 2           2             4    7     1      -0.7237375399E-03       4    7    1        -0.3918875816E-01      0.8215302116E-01
          0                 3           1             4    7     1       0.4928383151E-04       4    7    1         0.2743213507E-02      0.6415612574E-02

    ------------------------------------------------
       NWT REQUIRED            3 OUTER ITERATIONS 
       AND A TOTAL OF          5 INNER ITERATIONS.
    ------------------------------------------------

 NO OUTPUT CONTROL FOR STRESS PERIOD   35   TIME STEP   23
 
 SOLVING FOR HEAD 
                                                   Max.-Head-Change                         Max.-Flux-Residual
  Residual-Control   Outer-Iter.   Inner-Iter.     Column Row Layer    Maximum-Head-Change  Column Row Layer    Maximum-Flux-Residual          L2-NORM 
          0                 1           2             4    7     1       0.7339799253E-02       4    7    1         0.3865846550E+00      0.7929051711E+00
          0                 2           2             4    7     1      -0.7139634570E-03       4    7    1        -0.3865854204E-01      0.8116962018E-01
          0                 3           1             4    7     1       0.4861825302E-04       4    7    1         0.2706098385E-02      0.6357618505E-02

    ------------------------------------------------
       NWT REQUIRED            3 OUTER ITERATIONS 
       AND A TOTAL OF          5 INNER ITERATIONS.
    ------------------------------------------------

 NO OUTPUT CONTROL FOR STRESS PERIOD   35   TIME STEP   24
 
 SOLVING FOR HEAD 
                                                   Max.-Head-Change                         Max.-Flux-Residual
  Residual-Control   Outer-Iter.   Inner-Iter.     Column Row Layer    Maximum-Head-Change  Column Row Layer    Maximum-Flux-Residual          L2-NORM 
          0                 1           2             4    7     1       0.7241086936E-02       4    7    1         0.3813748291E+00      0.7833064316E+00
          0                 2           2             4    7     1      -0.7043614135E-03       4    7    1        -0.3813755765E-01      0.8021141800E-01
          0                 3           1             4    7     1       0.4796438938E-04       4    7    1         0.2669629464E-02      0.6301013726E-02

    ------------------------------------------------
       NWT REQUIRED            3 OUTER ITERATIONS 
       AND A TOTAL OF          5 INNER ITERATIONS.
    ------------------------------------------------

 NO OUTPUT CONTROL FOR STRESS PERIOD   35   TIME STEP   25
 
 SOLVING FOR HEAD 
                                                   Max.-Head-Change                         Max.-Flux-Residual
  Residual-Control   Outer-Iter.   Inner-Iter.     Column Row Layer    Maximum-Head-Change  Column Row Layer    Maximum-Flux-Residual          L2-NORM 
          0                 1           2             4    7     1       0.7143852577E-02       4    7    1         0.3762419198E+00      0.7739283391E+00
          0                 2           2             4    7     1      -0.6949031361E-03       4    7    1        -0.3762426499E-01      0.7927641415E-01
          0                 3           1             4    7     1       0.4732031621E-04       4    7    1         0.2633698990E-02      0.6245801493E-02

    ------------------------------------------------
       NWT REQUIRED            3 OUTER ITERATIONS 
       AND A TOTAL OF          5 INNER ITERATIONS.
    ------------------------------------------------

 NO OUTPUT CONTROL FOR STRESS PERIOD   35   TIME STEP   26
 
 SOLVING FOR HEAD 
                                                   Max.-Head-Change                         Max.-Flux-Residual
  Residual-Control   Outer-Iter.   Inner-Iter.     Column Row Layer    Maximum-Head-Change  Column Row Layer    Maximum-Flux-Residual          L2-NORM 
          0                 1           2             4    7     1       0.7048084536E-02       4    7    1         0.3711856408E+00      0.7647698941E+00
          0                 2           2             4    7     1      -0.6855874910E-03       4    7    1        -0.3711863535E-01      0.7836401138E-01
          0                 3           1             4    7     1       0.4668595539E-04       4    7    1         0.2598304912E-02      0.6191604829E-02

    ------------------------------------------------
       NWT REQUIRED            3 OUTER ITERATIONS 
       AND A TOTAL OF          5 INNER ITERATIONS.
    ------------------------------------------------

 NO OUTPUT CONTROL FOR STRESS PERIOD   35   TIME STEP   27
 
 SOLVING FOR HEAD 
                                                   Max.-Head-Change                         Max.-Flux-Residual
  Residual-Control   Outer-Iter.   Inner-Iter.     Column Row Layer    Maximum-Head-Change  Column Row Layer    Maximum-Flux-Residual          L2-NORM 
          0                 1           2             4    7     1       0.6954053002E-02       4    7    1         0.3662201743E+00      0.7558208969E+00
          0                 2           2             4    7     1      -0.6764407618E-03       4    7    1        -0.3662208702E-01      0.7747351687E-01
          0                 3           1             4    7     1       0.4606309761E-04       4    7    1         0.2563546541E-02      0.6139062612E-02

    ------------------------------------------------
       NWT REQUIRED            3 OUTER ITERATIONS 
       AND A TOTAL OF          5 INNER ITERATIONS.
    ------------------------------------------------

 NO OUTPUT CONTROL FOR STRESS PERIOD   35   TIME STEP   28
 
 SOLVING FOR HEAD 
                                                   Max.-Head-Change                         Max.-Flux-Residual
  Residual-Control   Outer-Iter.   Inner-Iter.     Column Row Layer    Maximum-Head-Change  Column Row Layer    Maximum-Flux-Residual          L2-NORM 
          0                 1           2             4    7     1       0.6861189009E-02       4    7    1         0.3613151723E+00      0.7470756956E+00
          0                 2           2             4    7     1      -0.6674076028E-03       4    7    1        -0.3613158514E-01      0.7660364806E-01
          0                 3           1             4    7     1       0.4544797313E-04       4    7    1         0.2529211419E-02      0.6088447513E-02

    ------------------------------------------------
       NWT REQUIRED            3 OUTER ITERATIONS 
       AND A TOTAL OF          5 INNER ITERATIONS.
    ------------------------------------------------

 NO OUTPUT CONTROL FOR STRESS PERIOD   35   TIME STEP   29
 
 SOLVING FOR HEAD 
                                                   Max.-Head-Change                         Max.-Flux-Residual
  Residual-Control   Outer-Iter.   Inner-Iter.     Column Row Layer    Maximum-Head-Change  Column Row Layer    Maximum-Flux-Residual          L2-NORM 
          0                 1           2             4    7     1       0.6770039782E-02       4    7    1         0.3565002776E+00      0.7385344526E+00
          0                 2           2             4    7     1      -0.6585412437E-03       4    7    1        -0.3565009402E-01      0.7575523031E-01
          0                 3           1             4    7     1       0.4484420683E-04       4    7    1         0.2495507016E-02      0.6038225784E-02

    ------------------------------------------------
       NWT REQUIRED            3 OUTER ITERATIONS 
       AND A TOTAL OF          5 INNER ITERATIONS.
    ------------------------------------------------

 NO OUTPUT CONTROL FOR STRESS PERIOD   35   TIME STEP   30



 STREAM LISTING     PERIOD     35   STEP       30

 LAYER ROW COL. STREAM  RCH.  FLOW INTO     FLOW TO   FLOW OUT OF   OVRLND.     DIRECT     STREAM       STREAM     STREAM     STREAM   STREAMBED  STREAMBED
                SEG.NO.  NO.  STRM. RCH.    AQUIFER    STRM. RCH.    RUNOFF     PRECIP       ET          HEAD       DEPTH      WIDTH   CONDCTNC.   GRADIENT

   1    1    1     1     1    2.6249E+01  2.5084E-01   2.5998E+01  0.000E+00  0.000E+00  0.000E+00  1.09424E+03  1.197E+00  1.328E+01  5.977E-02  1.399E+00
   1    2    2     1     2    2.5998E+01  3.8795E-01   2.5610E+01  0.000E+00  0.000E+00  0.000E+00  1.08925E+03  1.192E+00  1.322E+01  9.254E-02  1.397E+00
   1    3    3     1     3    2.5610E+01  3.3035E-01   2.5280E+01  0.000E+00  0.000E+00  0.000E+00  1.08361E+03  1.187E+00  1.315E+01  7.890E-02  1.396E+00
   1    3    4     1     4    2.5280E+01  3.0378E-01   2.4976E+01  0.000E+00  0.000E+00  0.000E+00  1.07859E+03  1.182E+00  1.309E+01  7.264E-02  1.394E+00
   1    4    5     2     1    2.2976E+01  3.2316E-01   2.2653E+01  0.000E+00  0.000E+00  0.000E+00  1.07308E+03  1.143E+00  1.200E+01  7.800E-02  1.381E+00
   1    5    6     2     2    2.2653E+01  2.4807E-01   2.2405E+01  0.000E+00  0.000E+00  0.000E+00  1.06764E+03  1.134E+00  1.200E+01  6.000E-02  1.378E+00
   1    6    6     2     3    2.2405E+01  2.4762E-01   2.2157E+01  0.000E+00  0.000E+00  0.000E+00  1.06292E+03  1.127E+00  1.200E+01  6.000E-02  1.376E+00
   1    7    6     2     4    2.2157E+01  2.4717E-01   2.1910E+01  0.000E+00  0.000E+00  0.000E+00  1.05819E+03  1.119E+00  1.200E+01  6.000E-02  1.373E+00
   1    8    6     2     5    2.1910E+01  2.4671E-01   2.1664E+01  0.000E+00  0.000E+00  0.000E+00  1.05347E+03  1.112E+00  1.200E+01  6.000E-02  1.371E+00
   1    3    5     3     1    2.0000E+00  2.8252E-01   1.7175E+00  0.000E+00  0.000E+00  0.000E+00  1.07555E+03  1.909E+00  9.636E+00  7.227E-02  1.955E+00
   1    3    6     3     2    1.7175E+00  2.4905E-01   1.4684E+00  0.000E+00  0.000E+00  0.000E+00  1.07264E+03  1.727E+00  8.909E+00  6.682E-02  1.864E+00
   1    3    7     3     3    1.4684E+00  1.9718E-01   1.2712E+00  0.000E+00  0.000E+00  0.000E+00  1.06987E+03  1.555E+00  8.218E+00  5.547E-02  1.777E+00
   1    4    8     3     4    1.2712E+00  2.2567E-01   1.0456E+00  0.000E+00  0.000E+00  0.000E+00  1.06682E+03  1.364E+00  7.455E+00  6.709E-02  1.682E+00
   1    5    8     3     5    1.0456E+00  1.5790E-01   8.8768E-01  0.000E+00  0.000E+00  0.000E+00  1.06362E+03  1.164E+00  6.655E+00  4.991E-02  1.582E+00
   1    6    8     3     6    8.8768E-01  5.5980E-02   8.3170E-01  0.000E+00  0.000E+00  0.000E+00  1.06158E+03  1.036E+00  6.145E+00  1.844E-02  1.518E+00
   1    5   10     4     1    1.0000E+01  9.0919E-02   9.9091E+00  0.000E+00  0.000E+00  0.000E+00  1.07836E+03  6.368E-01  1.000E+01  2.500E-02  1.212E+00
   1    5    9     4     2    9.9091E+00  1.8158E-01   9.7275E+00  0.000E+00  0.000E+00  0.000E+00  1.07154E+03  6.315E-01  1.000E+01  5.000E-02  1.211E+00
   1    6    8     4     3    9.7275E+00  1.2689E-01   9.6006E+00  0.000E+00  0.000E+00  0.000E+00  1.06381E+03  6.256E-01  1.000E+01  3.500E-02  1.209E+00
   1    6    8     5     1    1.0432E+01  2.2686E-01   1.0205E+01  0.000E+00  0.000E+00  0.000E+00  1.05868E+03  6.790E-01  1.542E+01  6.166E-02  1.226E+00
   1    7    7     5     2    1.0205E+01  2.7894E-01   9.9265E+00  0.000E+00  0.000E+00  0.000E+00  1.05417E+03  6.732E-01  1.519E+01  7.594E-02  1.224E+00
   1    8    7     5     3    9.9265E+00  1.9221E-01   9.7343E+00  0.000E+00  0.000E+00  0.000E+00  1.04992E+03  6.676E-01  1.497E+01  5.241E-02  1.223E+00
   1    8    6     5     4    9.7343E+00  1.3577E-01   9.5985E+00  0.000E+00  0.000E+00  0.000E+00  1.04691E+03  6.637E-01  1.482E+01  3.706E-02  1.221E+00
   1    9    6     6     1    3.0736E+01  2.6280E-01   3.0474E+01  0.000E+00  0.000E+00  0.000E+00  1.04411E+03  1.380E+00  1.200E+01  6.000E-02  1.460E+00
   1   10    7     6     2    3.0474E+01  2.6237E-01   3.0211E+01  0.000E+00  0.000E+00  0.000E+00  1.03955E+03  1.373E+00  1.200E+01  6.000E-02  1.458E+00
   1   11    7     6     3    3.0211E+01  2.6194E-01   2.9949E+01  0.000E+00  0.000E+00  0.000E+00  1.03500E+03  1.366E+00  1.200E+01  6.000E-02  1.455E+00
   1   12    7     6     4    2.9949E+01  2.6152E-01   2.9688E+01  0.000E+00  0.000E+00  0.000E+00  1.03045E+03  1.359E+00  1.200E+01  6.000E-02  1.453E+00
   1   13    7     6     5    2.9688E+01  4.8869E-03   2.9683E+01  0.000E+00  0.000E+00  0.000E+00  1.02726E+03  1.355E+00  1.200E+01  2.400E-02  6.787E-02
   1   14    9     7     1    1.5000E+02  1.3404E+00   1.4866E+02  0.000E+00  0.000E+00  0.000E+00  1.03987E+03  2.288E+00  5.529E+01  5.593E-01  7.988E-01
   1   13    8     7     2    1.4866E+02  1.8429E+00   1.4682E+02  0.000E+00  0.000E+00  0.000E+00  1.03478E+03  2.279E+00  5.526E+01  6.148E-01  9.992E-01
   1   13    7     7     3    1.4682E+02  1.4683E+00   1.4535E+02  0.000E+00  0.000E+00  0.000E+00  1.02969E+03  2.270E+00  5.522E+01  5.584E-01  8.764E-01
   1   13    6     8     1    1.7503E+02  9.3468E-01   1.7410E+02  0.000E+00  0.000E+00  0.000E+00  1.02486E+03  2.982E+00  4.324E+01  4.406E-01  7.071E-01
   1   13    5     8     2    1.7410E+02  1.7402E-01   1.7392E+02  0.000E+00  0.000E+00  0.000E+00  1.01860E+03  2.978E+00  4.319E+01  4.401E-01  1.318E-01
   1   13    4     8     3    1.7392E+02 -2.4709E+00   1.7639E+02  0.000E+00  0.000E+00  0.000E+00  1.01236E+03  2.986E+00  4.329E+01  4.412E+00 -1.867E-01
   1   13    3     8     4    1.7639E+02 -3.6544E+00   1.8005E+02  0.000E+00  0.000E+00  0.000E+00  1.00613E+03  3.005E+00  4.358E+01  4.441E+00 -2.743E-01
   1   13    2     8     5    1.8005E+02 -2.5614E+00   1.8261E+02  0.000E+00  0.000E+00  0.000E+00  9.99900E+02  3.025E+00  4.386E+01  4.469E+00 -1.910E-01
   1   13    1     8     6    1.8261E+02 -1.9625E+00   1.8457E+02  0.000E+00  0.000E+00  0.000E+00  9.94914E+02  3.039E+00  4.406E+01  2.694E+00 -2.428E-01
   1    8    6     9     1    5.2569E-01  0.0000E+00   5.2569E-01  0.000E+00  0.000E+00  0.000E+00  1.07911E+03  3.648E-01  4.000E+00  0.000E+00  1.122E+00
   1    8    5     9     2    5.2569E-01  0.0000E+00   5.2569E-01  0.000E+00  0.000E+00  0.000E+00  1.07861E+03  3.648E-01  4.000E+00  0.000E+00  1.122E+00





UNSATURATED ZONE PACKAGE VOLUMETRIC BUDGET FOR  TIME STEP    30 STRESS PERIOD   35
  ------------------------------------------------------------------------------



     CUMULATIVE VOLUMES      L**3       RATES FOR THIS TIME STEP      L**3/T
     ------------------                 ------------------------

           IN:                                      IN:
           ---                                      ---
        INFILTRATION =  1585166510.7654          INFILTRATION =           4.9332

          OUT:                                     OUT:
          ----                                     ----
              UZF ET =  1487746432.9915                UZF ET =           4.2054
        UZF RECHARGE =     1188922.5148          UZF RECHARGE =       0.0000E+00

            IN - OUT =    96231155.2591              IN - OUT =           0.7279

          STORAGE:                                 STORAGE:
          --------                                 --------
      STORAGE CHANGE =    96232124.8390        STORAGE CHANGE =           0.7279

 PERCENT DISCREPANCY IS DIFFERENCE BETWEEN IN-OUT MINUS CHANGE IN STORAGE
 DIVIDED BY THE AVERAGE OF IN AND OUT TIMES 100

 PERCENT DISCREPANCY =          -0.00     PERCENT DISCREPANCY =           0.00






1
  VOLUMETRIC BUDGET FOR AGRICULTURAL FIELDS AT TIME STEP   30, STRESS PERIOD  35
  ------------------------------------------------------------------------------

     CUMULATIVE VOLUMES      L**3       RATES FOR THIS TIME STEP      L**3/T
     ------------------                 ------------------------

           IN:                                      IN:
           ---                                      ---
               AG WELLS  =   218905344.0000                 AG WELLS  =           0.0000
      DIVERSION SEGMENTS =   972051904.0000        DIVERSION SEGMENTS =           0.5257
           GW IRRIGATION =           0.0000             GW IRRIGATION =           0.0000
           SW IRRIGATION =           0.0000             SW IRRIGATION =           0.0000
        SYSTEM LOSSES GW =           0.0000          SYSTEM LOSSES GW =           0.0000
        SYSTEM LOSSES SW =           0.0000          SYSTEM LOSSES SW =           0.0000

                TOTAL IN =  1190957312.0000                  TOTAL IN =           0.5257

          OUT:                                     OUT:
          ----                                     ----
               AG WELLS  =           0.0000                 AG WELLS  =           0.0000
      DIVERSION SEGMENTS =           0.0000        DIVERSION SEGMENTS =           0.0000
           GW IRRIGATION =   218905344.0000             GW IRRIGATION =           0.0000
           SW IRRIGATION =   972071424.0000             SW IRRIGATION =           0.5257
        SYSTEM LOSSES GW =           0.0000          SYSTEM LOSSES GW =           0.0000
        SYSTEM LOSSES SW =           0.0000          SYSTEM LOSSES SW =           0.0000

               TOTAL OUT =  1190976768.0000                 TOTAL OUT =           0.5257

                IN - OUT =      -19456.0000                  IN - OUT =      -1.0490E-05

     PERCENT DISCREPANCY =          -0.00         PERCENT DISCREPANCY =          -0.00



1
  VOLUMETRIC BUDGET FOR ENTIRE MODEL AT END OF TIME STEP   30, STRESS PERIOD  35
  ------------------------------------------------------------------------------

     CUMULATIVE VOLUMES      L**3       RATES FOR THIS TIME STEP      L**3/T
     ------------------                 ------------------------

           IN:                                      IN:
           ---                                      ---
             STORAGE     =   364978144.0000               STORAGE     =           1.3018
       CONSTANT HEAD     =           0.0000         CONSTANT HEAD     =           0.0000
     HEAD DEP BOUNDS     =    25582472.0000       HEAD DEP BOUNDS     =           0.2861
      STREAM LEAKAGE     =  1069771584.0000        STREAM LEAKAGE     =          11.8009
        UZF RECHARGE     =     1188922.5000          UZF RECHARGE     =           0.0000
               GW ET     =           0.0000                 GW ET     =           0.0000
     SURFACE LEAKAGE     =           0.0000       SURFACE LEAKAGE     =           0.0000
           AG WELLS      =           0.0000             AG WELLS      =           0.0000

                TOTAL IN =  1461521024.0000                  TOTAL IN =          13.3888

          OUT:                                     OUT:
          ----                                     ----
             STORAGE     =   244301168.0000               STORAGE     =           2.4489
       CONSTANT HEAD     =           0.0000         CONSTANT HEAD     =           0.0000
     HEAD DEP BOUNDS     =    26020986.0000       HEAD DEP BOUNDS     =           0.2904
      STREAM LEAKAGE     =   968950848.0000        STREAM LEAKAGE     =          10.6493
        UZF RECHARGE     =           0.0000          UZF RECHARGE     =           0.0000
               GW ET     =     3295915.0000                 GW ET     =           0.0000
     SURFACE LEAKAGE     =           0.0000       SURFACE LEAKAGE     =           0.0000
           AG WELLS      =   218905344.0000             AG WELLS      =           0.0000

               TOTAL OUT =  1461474176.0000                 TOTAL OUT =          13.3886

                IN - OUT =       46848.0000                  IN - OUT =       1.7929E-04

     PERCENT DISCREPANCY =           0.00         PERCENT DISCREPANCY =           0.00






         TIME SUMMARY AT END OF TIME STEP   30 IN STRESS PERIOD   35
                    SECONDS     MINUTES      HOURS       DAYS        YEARS
                    -----------------------------------------------------------
   TIME STEP LENGTH  87667.      1461.1      24.352      1.0147     2.77799E-03
 STRESS PERIOD TIME 2.63000E+06  43833.      730.56      30.440     8.33397E-02
         TOTAL TIME 8.95061E+07 1.49177E+06  24863.      1036.0      2.8363    
1
1
                            STRESS PERIOD NO.   36, LENGTH =   2630000.    
                            -----------------------------------------------

                              NUMBER OF TIME STEPS =    30

                               MULTIPLIER FOR DELT =     1.000

                            INITIAL TIME STEP SIZE =   87666.66    

 REUSING NON-PARAMETER GHB CELLS FROM LAST STRESS PERIOD

      2 GHB CELLS

 REUSING STREAM SEGMENT DATA FROM LAST STRESS PERIOD



            AREAL INFILTRATION RATE
 READING ON UNIT   19 WITH FORMAT: (10F4.0)            

            1           2           3           4           5           6           7           8           9          10
 ........................................................................................................................
   1   1.2000E-09   0.000       0.000       0.000       0.000       0.000       0.000       0.000       0.000       0.000    
   2   2.1000E-09  2.0000E-09  8.0000E-10  8.5000E-09   0.000       0.000       0.000       0.000       0.000       0.000    
   3   5.0000E-10  1.1000E-09  8.8000E-09  5.5000E-09   0.000       0.000       0.000       0.000       0.000       0.000    
   4   8.5000E-09  1.1000E-09  1.1000E-09  1.1000E-09  2.0000E-09   0.000       0.000       0.000       0.000       0.000    
   5   8.5000E-09  1.1000E-09  1.1000E-09  1.1000E-09  1.1000E-09   0.000       0.000       0.000       0.000       0.000    
   6   8.5000E-09  5.2000E-09  2.1000E-09  1.1000E-09  1.5000E-09   0.000       0.000       0.000       0.000       0.000    
   7   8.5000E-09  5.2000E-09  2.1000E-09  1.2000E-09  2.0000E-09   0.000       0.000       0.000       0.000       0.000    
   8   5.0000E-10  5.2000E-09  2.1000E-09  1.2000E-09  5.0000E-09   0.000       0.000       0.000       0.000       0.000    
   9   5.0000E-10  5.2000E-09  2.1000E-09  1.2000E-09  5.0000E-09   0.000       0.000       0.000       0.000       0.000    
  10   5.0000E-10  5.2000E-09  2.1000E-09  1.2000E-09  5.8000E-09   0.000       0.000       0.000       0.000       0.000    
  11   1.0000E-10  1.1000E-09  1.1000E-09  1.2000E-09  5.0000E-09   0.000       0.000       0.000       0.000       0.000    
  12   1.1000E-09  1.1000E-09  1.1000E-09  1.1000E-09  2.0000E-09   0.000       0.000       0.000       0.000       0.000    
  13   1.1000E-09  2.2000E-09  2.2000E-09  2.1000E-09  1.0000E-09   0.000       0.000       0.000       0.000       0.000    
  14   2.0000E-10  5.5000E-09  5.5000E-09  5.2000E-09  1.0000E-09   0.000       0.000       0.000       0.000       0.000    
  15    0.000      8.8000E-09  8.8000E-09   0.000       0.000       0.000       0.000       0.000       0.000       0.000    

                  ET RATE =  5.000000E-10

 USING ET EXTINCTION DEPTH FROM PREVIOUS STRESS PERIOD. CURRENT PERIOD IS:      36

 USING EXTINCTION WATER CONTENT FROM PREVIOUS STRESS PERIOD. CURRENT PERIOD IS:      36

 USING AIR ENTRY PRESSURE FROM PREVIOUS STRESS PERIOD. CURRENT PERIOD IS:      36

 USING ROOT PRESSURE HEAD FROM PREVIOUS STRESS PERIOD. CURRENT PERIOD IS:      36

 USING ROOT ACTIVITY FROM PREVIOUS STRESS PERIOD. CURRENT PERIOD IS:      36

 PROCESSING AG STRESS PERIOD DATA

 READING AG STRESS PERIOD DATA

 READING IRRIGATION SEGMENT

 READING IRRIGATION WELL

 READING SUPPLEMENTAL WELL

 END PROCESSING AG STRESS PERIOD DATA OPTIONS
 
 SOLVING FOR HEAD 
                                                   Max.-Head-Change                         Max.-Flux-Residual
  Residual-Control   Outer-Iter.   Inner-Iter.     Column Row Layer    Maximum-Head-Change  Column Row Layer    Maximum-Flux-Residual          L2-NORM 
          0                 1           2             4    7     1       0.6680585052E-02       4    7    1         0.3517742919E+00      0.7301987417E+00
          0                 2           2             4    7     1      -0.6498397113E-03       4    7    1        -0.3517749385E-01      0.7301624818E-01
          0                 3           1             4    7     1       0.4425166666E-04       4    7    1         0.2462425019E-02      0.5110856799E-02

    ------------------------------------------------
       NWT REQUIRED            3 OUTER ITERATIONS 
       AND A TOTAL OF          5 INNER ITERATIONS.
    ------------------------------------------------

 NO OUTPUT CONTROL FOR STRESS PERIOD   36   TIME STEP    1
 
 SOLVING FOR HEAD 
                                                   Max.-Head-Change                         Max.-Flux-Residual
  Residual-Control   Outer-Iter.   Inner-Iter.     Column Row Layer    Maximum-Head-Change  Column Row Layer    Maximum-Flux-Residual          L2-NORM 
          0                 1           2             4    7     1       0.6592468097E-02       4    7    1         0.3471213779E+00      0.7576804983E+00
          0                 2           2             4    7     1      -0.6412683115E-03       4    7    1        -0.3471220092E-01      0.7562179321E-01
          0                 3           1             4    7     1       0.4366798611E-04       4    7    1         0.2429854522E-02      0.5280143898E-02

    ------------------------------------------------
       NWT REQUIRED            3 OUTER ITERATIONS 
       AND A TOTAL OF          5 INNER ITERATIONS.
    ------------------------------------------------

 NO OUTPUT CONTROL FOR STRESS PERIOD   36   TIME STEP    2
 
 SOLVING FOR HEAD 
                                                   Max.-Head-Change                         Max.-Flux-Residual
  Residual-Control   Outer-Iter.   Inner-Iter.     Column Row Layer    Maximum-Head-Change  Column Row Layer    Maximum-Flux-Residual          L2-NORM 
          0                 1           2             4    7     1       0.6505677892E-02       4    7    1         0.3425378246E+00      0.7513615186E+00
          0                 2           2             4    7     1      -0.6328259680E-03       4    7    1        -0.3425384403E-01      0.7498623044E-01
          0                 3           1             4    7     1       0.4309309419E-04       4    7    1         0.2397769548E-02      0.5235346049E-02

    ------------------------------------------------
       NWT REQUIRED            3 OUTER ITERATIONS 
       AND A TOTAL OF          5 INNER ITERATIONS.
    ------------------------------------------------

 NO OUTPUT CONTROL FOR STRESS PERIOD   36   TIME STEP    3
 
 SOLVING FOR HEAD 
                                                   Max.-Head-Change                         Max.-Flux-Residual
  Residual-Control   Outer-Iter.   Inner-Iter.     Column Row Layer    Maximum-Head-Change  Column Row Layer    Maximum-Flux-Residual          L2-NORM 
          0                 1           2             4    7     1       0.6420210707E-02       4    7    1         0.3380230616E+00      0.7392525595E+00
          0                 2           2             4    7     1      -0.6245123192E-03       4    7    1        -0.3380236625E-01      0.7379480247E-01
          0                 3           1             4    7     1       0.4252696533E-04       4    7    1         0.2366166076E-02      0.5153615372E-02

    ------------------------------------------------
       NWT REQUIRED            3 OUTER ITERATIONS 
       AND A TOTAL OF          5 INNER ITERATIONS.
    ------------------------------------------------

 NO OUTPUT CONTROL FOR STRESS PERIOD   36   TIME STEP    4
 
 SOLVING FOR HEAD 
                                                   Max.-Head-Change                         Max.-Flux-Residual
  Residual-Control   Outer-Iter.   Inner-Iter.     Column Row Layer    Maximum-Head-Change  Column Row Layer    Maximum-Flux-Residual          L2-NORM 
          0                 1           2             4    7     1       0.6336316401E-02       4    7    1         0.3335916829E+00      0.7278859311E+00
          0                 2           2             4    7     1      -0.6163516692E-03       4    7    1        -0.3335922692E-01      0.7267581557E-01
          0                 3           1             4    7     1       0.4197125602E-04       4    7    1         0.2335146345E-02      0.5076776758E-02

    ------------------------------------------------
       NWT REQUIRED            3 OUTER ITERATIONS 
       AND A TOTAL OF          5 INNER ITERATIONS.
    ------------------------------------------------

 NO OUTPUT CONTROL FOR STRESS PERIOD   36   TIME STEP    5
 
 SOLVING FOR HEAD 
                                                   Max.-Head-Change                         Max.-Flux-Residual
  Residual-Control   Outer-Iter.   Inner-Iter.     Column Row Layer    Maximum-Head-Change  Column Row Layer    Maximum-Flux-Residual          L2-NORM 
          0                 1           2             4    7     1       0.6253705679E-02       4    7    1         0.3292270688E+00      0.7171837524E+00
          0                 2           2             4    7     1      -0.6083158776E-03       4    7    1        -0.3292276408E-01      0.7162048031E-01
          0                 3           1             4    7     1       0.4142404848E-04       4    7    1         0.2304593944E-02      0.5004600550E-02

    ------------------------------------------------
       NWT REQUIRED            3 OUTER ITERATIONS 
       AND A TOTAL OF          5 INNER ITERATIONS.
    ------------------------------------------------

 NO OUTPUT CONTROL FOR STRESS PERIOD   36   TIME STEP    6
 
 SOLVING FOR HEAD 
                                                   Max.-Head-Change                         Max.-Flux-Residual
  Residual-Control   Outer-Iter.   Inner-Iter.     Column Row Layer    Maximum-Head-Change  Column Row Layer    Maximum-Flux-Residual          L2-NORM 
          0                 1           2             4    7     1       0.6172639579E-02       4    7    1         0.3249437946E+00      0.7070770295E+00
          0                 2           2             4    7     1      -0.6004303357E-03       4    7    1        -0.3249443527E-01      0.7062290422E-01
          0                 3           1             4    7     1       0.4088707209E-04       4    7    1         0.2274610911E-02      0.4936013223E-02

    ------------------------------------------------
       NWT REQUIRED            3 OUTER ITERATIONS 
       AND A TOTAL OF          5 INNER ITERATIONS.
    ------------------------------------------------

 NO OUTPUT CONTROL FOR STRESS PERIOD   36   TIME STEP    7
 
 SOLVING FOR HEAD 
                                                   Max.-Head-Change                         Max.-Flux-Residual
  Residual-Control   Outer-Iter.   Inner-Iter.     Column Row Layer    Maximum-Head-Change  Column Row Layer    Maximum-Flux-Residual          L2-NORM 
          0                 1           2             4    7     1       0.6092815158E-02       4    7    1         0.3207258197E+00      0.6974788090E+00
          0                 2           2             4    7     1      -0.5926655760E-03       4    7    1        -0.3207263640E-01      0.6967416853E-01
          0                 3           1             4    7     1       0.4035832128E-04       4    7    1         0.2245085009E-02      0.4870577287E-02

    ------------------------------------------------
       NWT REQUIRED            3 OUTER ITERATIONS 
       AND A TOTAL OF          5 INNER ITERATIONS.
    ------------------------------------------------

 NO OUTPUT CONTROL FOR STRESS PERIOD   36   TIME STEP    8
 
 SOLVING FOR HEAD 
                                                   Max.-Head-Change                         Max.-Flux-Residual
  Residual-Control   Outer-Iter.   Inner-Iter.     Column Row Layer    Maximum-Head-Change  Column Row Layer    Maximum-Flux-Residual          L2-NORM 
          0                 1           2             4    7     1       0.6014218779E-02       4    7    1         0.3165722242E+00      0.6883336996E+00
          0                 2           2             4    7     1      -0.5850202714E-03       4    7    1        -0.3165727550E-01      0.6876910014E-01
          0                 3           1             4    7     1       0.3983770493E-04       4    7    1         0.2216009745E-02      0.4807904984E-02

    ------------------------------------------------
       NWT REQUIRED            3 OUTER ITERATIONS 
       AND A TOTAL OF          5 INNER ITERATIONS.
    ------------------------------------------------

 NO OUTPUT CONTROL FOR STRESS PERIOD   36   TIME STEP    9
 
 SOLVING FOR HEAD 
                                                   Max.-Head-Change                         Max.-Flux-Residual
  Residual-Control   Outer-Iter.   Inner-Iter.     Column Row Layer    Maximum-Head-Change  Column Row Layer    Maximum-Flux-Residual          L2-NORM 
          0                 1           2             4    7     1       0.5937110928E-02       4    7    1         0.3124970892E+00      0.6796048852E+00
          0                 2           2             4    7     1      -0.5780483247E-03       4    7    1        -0.3129382416E-01      0.6792274706E-01
          0                 3           1             4    7     1       0.3936293929E-04       4    7    1         0.2190568019E-02      0.4749506001E-02

    ------------------------------------------------
       NWT REQUIRED            3 OUTER ITERATIONS 
       AND A TOTAL OF          5 INNER ITERATIONS.
    ------------------------------------------------

 NO OUTPUT CONTROL FOR STRESS PERIOD   36   TIME STEP   10
 
 SOLVING FOR HEAD 
                                                   Max.-Head-Change                         Max.-Flux-Residual
  Residual-Control   Outer-Iter.   Inner-Iter.     Column Row Layer    Maximum-Head-Change  Column Row Layer    Maximum-Flux-Residual          L2-NORM 
          0                 1           2             4    7     1       0.5858179384E-02       4    7    1         0.3084561249E+00      0.6712335897E+00
          0                 2           2             4    7     1      -0.5698420513E-03       4    7    1        -0.3084567662E-01      0.6707465925E-01
          0                 3           1             4    7     1       0.3880412270E-04       4    7    1         0.2159197690E-02      0.4690729993E-02

    ------------------------------------------------
       NWT REQUIRED            3 OUTER ITERATIONS 
       AND A TOTAL OF          5 INNER ITERATIONS.
    ------------------------------------------------

 NO OUTPUT CONTROL FOR STRESS PERIOD   36   TIME STEP   11
 
 SOLVING FOR HEAD 
                                                   Max.-Head-Change                         Max.-Flux-Residual
  Residual-Control   Outer-Iter.   Inner-Iter.     Column Row Layer    Maximum-Head-Change  Column Row Layer    Maximum-Flux-Residual          L2-NORM 
          0                 1           2             4    7     1       0.5781434048E-02       4    7    1         0.3043917832E+00      0.6631400875E+00
          0                 2           2             4    7     1      -0.5623767938E-03       4    7    1        -0.3043924048E-01      0.6627158010E-01
          0                 3           1             4    7     1       0.3829576626E-04       4    7    1         0.2130747163E-02      0.4635128352E-02

    ------------------------------------------------
       NWT REQUIRED            3 OUTER ITERATIONS 
       AND A TOTAL OF          5 INNER ITERATIONS.
    ------------------------------------------------

 NO OUTPUT CONTROL FOR STRESS PERIOD   36   TIME STEP   12
 
 SOLVING FOR HEAD 
                                                   Max.-Head-Change                         Max.-Flux-Residual
  Residual-Control   Outer-Iter.   Inner-Iter.     Column Row Layer    Maximum-Head-Change  Column Row Layer    Maximum-Flux-Residual          L2-NORM 
          0                 1           2             4    7     1       0.5706028274E-02       4    7    1         0.3003978367E+00      0.6553610693E+00
          0                 2           2             4    7     1      -0.5550418409E-03       4    7    1        -0.3003984395E-01      0.6549921989E-01
          0                 3           1             4    7     1       0.3779628412E-04       4    7    1         0.2102789423E-02      0.4581404129E-02

    ------------------------------------------------
       NWT REQUIRED            3 OUTER ITERATIONS 
       AND A TOTAL OF          5 INNER ITERATIONS.
    ------------------------------------------------

 NO OUTPUT CONTROL FOR STRESS PERIOD   36   TIME STEP   13
 
 SOLVING FOR HEAD 
                                                   Max.-Head-Change                         Max.-Flux-Residual
  Residual-Control   Outer-Iter.   Inner-Iter.     Column Row Layer    Maximum-Head-Change  Column Row Layer    Maximum-Flux-Residual          L2-NORM 
          0                 1           2             4    7     1       0.5631923308E-02       4    7    1         0.2964733447E+00      0.6478357317E+00
          0                 2           2             4    7     1      -0.5478334206E-03       4    7    1        -0.2964739288E-01      0.6475131875E-01
          0                 3           1             4    7     1       0.3730541713E-04       4    7    1         0.2075317832E-02      0.4529789396E-02

    ------------------------------------------------
       NWT REQUIRED            3 OUTER ITERATIONS 
       AND A TOTAL OF          5 INNER ITERATIONS.
    ------------------------------------------------

 NO OUTPUT CONTROL FOR STRESS PERIOD   36   TIME STEP   14
 
 SOLVING FOR HEAD 
                                                   Max.-Head-Change                         Max.-Flux-Residual
  Residual-Control   Outer-Iter.   Inner-Iter.     Column Row Layer    Maximum-Head-Change  Column Row Layer    Maximum-Flux-Residual          L2-NORM 
          0                 1           2             4    7     1       0.5559375668E-02       4    7    1         0.2926310868E+00      0.6405912981E+00
          0                 2           2             4    7     1      -0.5407764872E-03       4    7    1        -0.2926316528E-01      0.6403086527E-01
          0                 3           1             4    7     1       0.3682486649E-04       4    7    1         0.2048421919E-02      0.4479558970E-02

    ------------------------------------------------
       NWT REQUIRED            3 OUTER ITERATIONS 
       AND A TOTAL OF          5 INNER ITERATIONS.
    ------------------------------------------------

 NO OUTPUT CONTROL FOR STRESS PERIOD   36   TIME STEP   15
 
 SOLVING FOR HEAD 
                                                   Max.-Head-Change                         Max.-Flux-Residual
  Residual-Control   Outer-Iter.   Inner-Iter.     Column Row Layer    Maximum-Head-Change  Column Row Layer    Maximum-Flux-Residual          L2-NORM 
          0                 1           2             4    7     1       0.5488331054E-02       4    7    1         0.2888695745E+00      0.6335557628E+00
          0                 2           2             4    7     1      -0.5338657590E-03       4    7    1        -0.2888701236E-01      0.6333095307E-01
          0                 3           1             4    7     1       0.3635427222E-04       4    7    1         0.2022091232E-02      0.4431000050E-02

    ------------------------------------------------
       NWT REQUIRED            3 OUTER ITERATIONS 
       AND A TOTAL OF          5 INNER ITERATIONS.
    ------------------------------------------------

 NO OUTPUT CONTROL FOR STRESS PERIOD   36   TIME STEP   16
 
 SOLVING FOR HEAD 
                                                   Max.-Head-Change                         Max.-Flux-Residual
  Residual-Control   Outer-Iter.   Inner-Iter.     Column Row Layer    Maximum-Head-Change  Column Row Layer    Maximum-Flux-Residual          L2-NORM 
          0                 1           2             4    7     1       0.5418491987E-02       4    7    1         0.2851712026E+00      0.6267383258E+00
          0                 2           2             4    7     1      -0.5270722977E-03       4    7    1        -0.2851717354E-01      0.6265087902E-01
          0                 3           1             4    7     1       0.3589166260E-04       4    7    1         0.1996202494E-02      0.4382367676E-02

    ------------------------------------------------
       NWT REQUIRED            3 OUTER ITERATIONS 
       AND A TOTAL OF          5 INNER ITERATIONS.
    ------------------------------------------------

 NO OUTPUT CONTROL FOR STRESS PERIOD   36   TIME STEP   17
 
 SOLVING FOR HEAD 
                                                   Max.-Head-Change                         Max.-Flux-Residual
  Residual-Control   Outer-Iter.   Inner-Iter.     Column Row Layer    Maximum-Head-Change  Column Row Layer    Maximum-Flux-Residual          L2-NORM 
          0                 1           2             4    7     1       0.5349827901E-02       4    7    1         0.2815353369E+00      0.6201210641E+00
          0                 2           2             4    7     1      -0.5203931311E-03       4    7    1        -0.2815358535E-01      0.6199325979E-01
          0                 3           1             4    7     1       0.3543683645E-04       4    7    1         0.1970751357E-02      0.4337861120E-02

    ------------------------------------------------
       NWT REQUIRED            3 OUTER ITERATIONS 
       AND A TOTAL OF          5 INNER ITERATIONS.
    ------------------------------------------------

 NO OUTPUT CONTROL FOR STRESS PERIOD   36   TIME STEP   18
 
 SOLVING FOR HEAD 
                                                   Max.-Head-Change                         Max.-Flux-Residual
  Residual-Control   Outer-Iter.   Inner-Iter.     Column Row Layer    Maximum-Head-Change  Column Row Layer    Maximum-Flux-Residual          L2-NORM 
          0                 1           2             4    7     1       0.5282588487E-02       4    7    1         0.2779751820E+00      0.6136829703E+00
          0                 2           2             4    7     1      -0.5138525468E-03       4    7    1        -0.2779756830E-01      0.6135166050E-01
          0                 3           1             4    7     1       0.3499144693E-04       4    7    1         0.1945830160E-02      0.4293225300E-02

    ------------------------------------------------
       NWT REQUIRED            3 OUTER ITERATIONS 
       AND A TOTAL OF          5 INNER ITERATIONS.
    ------------------------------------------------

 NO OUTPUT CONTROL FOR STRESS PERIOD   36   TIME STEP   19
 
 SOLVING FOR HEAD 
                                                   Max.-Head-Change                         Max.-Flux-Residual
  Residual-Control   Outer-Iter.   Inner-Iter.     Column Row Layer    Maximum-Head-Change  Column Row Layer    Maximum-Flux-Residual          L2-NORM 
          0                 1           2             4    7     1       0.5216461156E-02       4    7    1         0.2744741047E+00      0.6074103143E+00
          0                 2           2             4    7     1      -0.5074201386E-03       4    7    1        -0.2744745908E-01      0.6072640442E-01
          0                 3           1             4    7     1       0.3455342387E-04       4    7    1         0.1921322492E-02      0.4249527364E-02

    ------------------------------------------------
       NWT REQUIRED            3 OUTER ITERATIONS 
       AND A TOTAL OF          5 INNER ITERATIONS.
    ------------------------------------------------

 NO OUTPUT CONTROL FOR STRESS PERIOD   36   TIME STEP   20
 
 SOLVING FOR HEAD 
                                                   Max.-Head-Change                         Max.-Flux-Residual
  Residual-Control   Outer-Iter.   Inner-Iter.     Column Row Layer    Maximum-Head-Change  Column Row Layer    Maximum-Flux-Residual          L2-NORM 
          0                 1           2             4    7     1       0.5151699342E-02       4    7    1         0.2710454774E+00      0.6013036842E+00
          0                 2           2             4    7     1      -0.5011205594E-03       4    7    1        -0.2710459493E-01      0.6011753498E-01
          0                 3           1             4    7     1       0.3412444647E-04       4    7    1         0.1897322028E-02      0.4207020029E-02

    ------------------------------------------------
       NWT REQUIRED            3 OUTER ITERATIONS 
       AND A TOTAL OF          5 INNER ITERATIONS.
    ------------------------------------------------

 NO OUTPUT CONTROL FOR STRESS PERIOD   36   TIME STEP   21
 
 SOLVING FOR HEAD 
                                                   Max.-Head-Change                         Max.-Flux-Residual
  Residual-Control   Outer-Iter.   Inner-Iter.     Column Row Layer    Maximum-Head-Change  Column Row Layer    Maximum-Flux-Residual          L2-NORM 
          0                 1           2             4    7     1       0.5088000448E-02       4    7    1         0.2676728603E+00      0.5953479748E+00
          0                 2           2             4    7     1      -0.4949243730E-03       4    7    1        -0.2676733181E-01      0.5952343582E-01
          0                 3           1             4    7     1       0.3370250891E-04       4    7    1         0.1873713594E-02      0.4165597081E-02

    ------------------------------------------------
       NWT REQUIRED            3 OUTER ITERATIONS 
       AND A TOTAL OF          5 INNER ITERATIONS.
    ------------------------------------------------

 NO OUTPUT CONTROL FOR STRESS PERIOD   36   TIME STEP   22
 
 SOLVING FOR HEAD 
                                                   Max.-Head-Change                         Max.-Flux-Residual
  Residual-Control   Outer-Iter.   Inner-Iter.     Column Row Layer    Maximum-Head-Change  Column Row Layer    Maximum-Flux-Residual          L2-NORM 
          0                 1           2             4    7     1       0.5025607512E-02       4    7    1         0.2643701446E+00      0.5895293505E+00
          0                 2           2             4    7     1      -0.4888552223E-03       4    7    1        -0.2643705890E-01      0.5894295032E-01
          0                 3           1             4    7     1       0.3328922294E-04       4    7    1         0.1850594513E-02      0.4125131606E-02

    ------------------------------------------------
       NWT REQUIRED            3 OUTER ITERATIONS 
       AND A TOTAL OF          5 INNER ITERATIONS.
    ------------------------------------------------

 NO OUTPUT CONTROL FOR STRESS PERIOD   36   TIME STEP   23
 
 SOLVING FOR HEAD 
                                                   Max.-Head-Change                         Max.-Flux-Residual
  Residual-Control   Outer-Iter.   Inner-Iter.     Column Row Layer    Maximum-Head-Change  Column Row Layer    Maximum-Flux-Residual          L2-NORM 
          0                 1           2             4    7     1       0.4964488804E-02       4    7    1         0.2611351411E+00      0.5838552828E+00
          0                 2           2             4    7     1      -0.4829100190E-03       4    7    1        -0.2611355724E-01      0.5837659219E-01
          0                 3           1             4    7     1       0.3288437627E-04       4    7    1         0.1827949383E-02      0.4085518245E-02

    ------------------------------------------------
       NWT REQUIRED            3 OUTER ITERATIONS 
       AND A TOTAL OF          5 INNER ITERATIONS.
    ------------------------------------------------

 NO OUTPUT CONTROL FOR STRESS PERIOD   36   TIME STEP   24
 
 SOLVING FOR HEAD 
                                                   Max.-Head-Change                         Max.-Flux-Residual
  Residual-Control   Outer-Iter.   Inner-Iter.     Column Row Layer    Maximum-Head-Change  Column Row Layer    Maximum-Flux-Residual          L2-NORM 
          0                 1           2             4    7     1       0.4904337630E-02       4    7    1         0.2579514142E+00      0.5782896533E+00
          0                 2           2             4    7     1      -0.4770589320E-03       4    7    1        -0.2579518332E-01      0.5782113485E-01
          0                 3           1             4    7     1       0.3248593942E-04       4    7    1         0.1805663204E-02      0.4046904108E-02

    ------------------------------------------------
       NWT REQUIRED            3 OUTER ITERATIONS 
       AND A TOTAL OF          5 INNER ITERATIONS.
    ------------------------------------------------

 NO OUTPUT CONTROL FOR STRESS PERIOD   36   TIME STEP   25
 
 SOLVING FOR HEAD 
                                                   Max.-Head-Change                         Max.-Flux-Residual
  Residual-Control   Outer-Iter.   Inner-Iter.     Column Row Layer    Maximum-Head-Change  Column Row Layer    Maximum-Flux-Residual          L2-NORM 
          0                 1           2             4    7     1       0.4845140289E-02       4    7    1         0.2548178525E+00      0.5728605084E+00
          0                 2           2             4    7     1      -0.4713006269E-03       4    7    1        -0.2548182591E-01      0.5727910744E-01
          0                 3           1             4    7     1       0.3209382033E-04       4    7    1         0.1783728209E-02      0.4008901623E-02

    ------------------------------------------------
       NWT REQUIRED            3 OUTER ITERATIONS 
       AND A TOTAL OF          5 INNER ITERATIONS.
    ------------------------------------------------

 NO OUTPUT CONTROL FOR STRESS PERIOD   36   TIME STEP   26
 
 SOLVING FOR HEAD 
                                                   Max.-Head-Change                         Max.-Flux-Residual
  Residual-Control   Outer-Iter.   Inner-Iter.     Column Row Layer    Maximum-Head-Change  Column Row Layer    Maximum-Flux-Residual          L2-NORM 
          0                 1           2             4    7     1       0.4787148404E-02       4    7    1         0.2517485368E+00      0.5675387576E+00
          0                 2           2             4    7     1      -0.4656595809E-03       4    7    1        -0.2517489319E-01      0.5674766788E-01
          0                 3           1             4    7     1       0.3170968636E-04       4    7    1         0.1762242912E-02      0.3971811973E-02

    ------------------------------------------------
       NWT REQUIRED            3 OUTER ITERATIONS 
       AND A TOTAL OF          5 INNER ITERATIONS.
    ------------------------------------------------

 NO OUTPUT CONTROL FOR STRESS PERIOD   36   TIME STEP   27
 
 SOLVING FOR HEAD 
                                                   Max.-Head-Change                         Max.-Flux-Residual
  Residual-Control   Outer-Iter.   Inner-Iter.     Column Row Layer    Maximum-Head-Change  Column Row Layer    Maximum-Flux-Residual          L2-NORM 
          0                 1           2             4    7     1       0.4730327355E-02       4    7    1         0.2487417226E+00      0.5623317584E+00
          0                 2           2             4    7     1      -0.4601324250E-03       4    7    1        -0.2487421061E-01      0.5622771174E-01
          0                 3           1             4    7     1       0.3133330745E-04       4    7    1         0.1741195119E-02      0.3935516635E-02

    ------------------------------------------------
       NWT REQUIRED            3 OUTER ITERATIONS 
       AND A TOTAL OF          5 INNER ITERATIONS.
    ------------------------------------------------

 NO OUTPUT CONTROL FOR STRESS PERIOD   36   TIME STEP   28
 
 SOLVING FOR HEAD 
                                                   Max.-Head-Change                         Max.-Flux-Residual
  Residual-Control   Outer-Iter.   Inner-Iter.     Column Row Layer    Maximum-Head-Change  Column Row Layer    Maximum-Flux-Residual          L2-NORM 
          0                 1           2             4    7     1       0.4674375582E-02       4    7    1         0.2457808234E+00      0.5572311017E+00
          0                 2           2             4    7     1      -0.4546898277E-03       4    7    1        -0.2457811962E-01      0.5571813204E-01
          0                 3           1             4    7     1       0.3096268681E-04       4    7    1         0.1720468752E-02      0.3899775207E-02

    ------------------------------------------------
       NWT REQUIRED            3 OUTER ITERATIONS 
       AND A TOTAL OF          5 INNER ITERATIONS.
    ------------------------------------------------

 NO OUTPUT CONTROL FOR STRESS PERIOD   36   TIME STEP   29
 
 SOLVING FOR HEAD 
                                                   Max.-Head-Change                         Max.-Flux-Residual
  Residual-Control   Outer-Iter.   Inner-Iter.     Column Row Layer    Maximum-Head-Change  Column Row Layer    Maximum-Flux-Residual          L2-NORM 
          0                 1           2             4    7     1       0.4619551543E-02       4    7    1         0.2428797864E+00      0.5522343768E+00
          0                 2           2             4    7     1      -0.4493569283E-03       4    7    1        -0.2428801487E-01      0.5521902349E-01
          0                 3           1             4    7     1       0.3059953677E-04       4    7    1         0.1700161436E-02      0.3864915009E-02

    ------------------------------------------------
       NWT REQUIRED            3 OUTER ITERATIONS 
       AND A TOTAL OF          5 INNER ITERATIONS.
    ------------------------------------------------

 NO OUTPUT CONTROL FOR STRESS PERIOD   36   TIME STEP   30



 STREAM LISTING     PERIOD     36   STEP       30

 LAYER ROW COL. STREAM  RCH.  FLOW INTO     FLOW TO   FLOW OUT OF   OVRLND.     DIRECT     STREAM       STREAM     STREAM     STREAM   STREAMBED  STREAMBED
                SEG.NO.  NO.  STRM. RCH.    AQUIFER    STRM. RCH.    RUNOFF     PRECIP       ET          HEAD       DEPTH      WIDTH   CONDCTNC.   GRADIENT

   1    1    1     1     1    1.9499E+01  2.1750E-01   1.9282E+01  0.000E+00  0.000E+00  0.000E+00  1.09414E+03  1.090E+00  1.182E+01  5.318E-02  1.363E+00
   1    2    2     1     2    1.9282E+01  3.3555E-01   1.8946E+01  0.000E+00  0.000E+00  0.000E+00  1.08914E+03  1.086E+00  1.173E+01  8.213E-02  1.362E+00
   1    3    3     1     3    1.8946E+01  2.8492E-01   1.8661E+01  0.000E+00  0.000E+00  0.000E+00  1.08350E+03  1.081E+00  1.164E+01  6.982E-02  1.360E+00
   1    3    4     1     4    1.8661E+01  2.6135E-01   1.8400E+01  0.000E+00  0.000E+00  0.000E+00  1.07848E+03  1.076E+00  1.155E+01  6.412E-02  1.359E+00
   1    4    5     2     1    1.6400E+01  3.0673E-01   1.6093E+01  0.000E+00  0.000E+00  0.000E+00  1.07287E+03  9.324E-01  1.200E+01  7.800E-02  1.311E+00
   1    5    6     2     2    1.6093E+01  2.3538E-01   1.5858E+01  0.000E+00  0.000E+00  0.000E+00  1.06743E+03  9.230E-01  1.200E+01  6.000E-02  1.308E+00
   1    6    6     2     3    1.5858E+01  2.3489E-01   1.5623E+01  0.000E+00  0.000E+00  0.000E+00  1.06271E+03  9.149E-01  1.200E+01  6.000E-02  1.305E+00
   1    7    6     2     4    1.5623E+01  2.3440E-01   1.5389E+01  0.000E+00  0.000E+00  0.000E+00  1.05798E+03  9.067E-01  1.200E+01  6.000E-02  1.302E+00
   1    8    6     2     5    1.5389E+01  2.3390E-01   1.5155E+01  0.000E+00  0.000E+00  0.000E+00  1.05326E+03  8.984E-01  1.200E+01  6.000E-02  1.299E+00
   1    3    5     3     1    2.0000E+00  2.8252E-01   1.7175E+00  0.000E+00  0.000E+00  0.000E+00  1.07555E+03  1.909E+00  9.636E+00  7.227E-02  1.955E+00
   1    3    6     3     2    1.7175E+00  2.4905E-01   1.4684E+00  0.000E+00  0.000E+00  0.000E+00  1.07264E+03  1.727E+00  8.909E+00  6.682E-02  1.864E+00
   1    3    7     3     3    1.4684E+00  1.9718E-01   1.2712E+00  0.000E+00  0.000E+00  0.000E+00  1.06987E+03  1.555E+00  8.218E+00  5.547E-02  1.777E+00
   1    4    8     3     4    1.2712E+00  2.2567E-01   1.0456E+00  0.000E+00  0.000E+00  0.000E+00  1.06682E+03  1.364E+00  7.455E+00  6.709E-02  1.682E+00
   1    5    8     3     5    1.0456E+00  1.5790E-01   8.8768E-01  0.000E+00  0.000E+00  0.000E+00  1.06362E+03  1.164E+00  6.655E+00  4.991E-02  1.582E+00
   1    6    8     3     6    8.8768E-01  5.5980E-02   8.3170E-01  0.000E+00  0.000E+00  0.000E+00  1.06158E+03  1.036E+00  6.145E+00  1.844E-02  1.518E+00
   1    5   10     4     1    1.0000E+01  9.0919E-02   9.9091E+00  0.000E+00  0.000E+00  0.000E+00  1.07836E+03  6.368E-01  1.000E+01  2.500E-02  1.212E+00
   1    5    9     4     2    9.9091E+00  1.8158E-01   9.7275E+00  0.000E+00  0.000E+00  0.000E+00  1.07154E+03  6.315E-01  1.000E+01  5.000E-02  1.211E+00
   1    6    8     4     3    9.7275E+00  1.2689E-01   9.6006E+00  0.000E+00  0.000E+00  0.000E+00  1.06381E+03  6.256E-01  1.000E+01  3.500E-02  1.209E+00
   1    6    8     5     1    1.0432E+01  2.2686E-01   1.0205E+01  0.000E+00  0.000E+00  0.000E+00  1.05868E+03  6.790E-01  1.542E+01  6.166E-02  1.226E+00
   1    7    7     5     2    1.0205E+01  2.7894E-01   9.9265E+00  0.000E+00  0.000E+00  0.000E+00  1.05417E+03  6.732E-01  1.519E+01  7.594E-02  1.224E+00
   1    8    7     5     3    9.9265E+00  1.9221E-01   9.7343E+00  0.000E+00  0.000E+00  0.000E+00  1.04992E+03  6.676E-01  1.497E+01  5.241E-02  1.223E+00
   1    8    6     5     4    9.7343E+00  1.3577E-01   9.5985E+00  0.000E+00  0.000E+00  0.000E+00  1.04691E+03  6.637E-01  1.482E+01  3.706E-02  1.221E+00
   1    9    6     6     1    2.4753E+01  2.5261E-01   2.4501E+01  0.000E+00  0.000E+00  0.000E+00  1.04394E+03  1.210E+00  1.200E+01  6.000E-02  1.403E+00
   1   10    7     6     2    2.4501E+01  2.5216E-01   2.4249E+01  0.000E+00  0.000E+00  0.000E+00  1.03938E+03  1.203E+00  1.200E+01  6.000E-02  1.401E+00
   1   11    7     6     3    2.4249E+01  2.5171E-01   2.3997E+01  0.000E+00  0.000E+00  0.000E+00  1.03483E+03  1.195E+00  1.200E+01  6.000E-02  1.398E+00
   1   12    7     6     4    2.3997E+01  2.5126E-01   2.3746E+01  0.000E+00  0.000E+00  0.000E+00  1.03028E+03  1.188E+00  1.200E+01  6.000E-02  1.396E+00
   1   13    7     6     5    2.3746E+01  7.7038E-04   2.3745E+01  0.000E+00  0.000E+00  0.000E+00  1.02709E+03  1.184E+00  1.200E+01  2.400E-02  1.070E-02
   1   14    9     7     1    1.5000E+02  1.3409E+00   1.4866E+02  0.000E+00  0.000E+00  0.000E+00  1.03987E+03  2.288E+00  5.529E+01  5.593E-01  7.991E-01
   1   13    8     7     2    1.4866E+02  1.8429E+00   1.4682E+02  0.000E+00  0.000E+00  0.000E+00  1.03478E+03  2.279E+00  5.526E+01  6.148E-01  9.992E-01
   1   13    7     7     3    1.4682E+02  1.4681E+00   1.4535E+02  0.000E+00  0.000E+00  0.000E+00  1.02969E+03  2.270E+00  5.522E+01  5.584E-01  8.763E-01
   1   13    6     8     1    1.6909E+02  9.0902E-01   1.6818E+02  0.000E+00  0.000E+00  0.000E+00  1.02482E+03  2.943E+00  4.268E+01  4.349E-01  6.967E-01
   1   13    5     8     2    1.6818E+02  1.5872E-01   1.6803E+02  0.000E+00  0.000E+00  0.000E+00  1.01856E+03  2.940E+00  4.263E+01  4.344E-01  1.218E-01
   1   13    4     8     3    1.6803E+02 -2.5092E+00   1.7053E+02  0.000E+00  0.000E+00  0.000E+00  1.01232E+03  2.948E+00  4.274E+01  4.355E+00 -1.920E-01
   1   13    3     8     4    1.7053E+02 -3.6803E+00   1.7421E+02  0.000E+00  0.000E+00  0.000E+00  1.00609E+03  2.968E+00  4.303E+01  4.385E+00 -2.798E-01
   1   13    2     8     5    1.7421E+02 -2.5885E+00   1.7680E+02  0.000E+00  0.000E+00  0.000E+00  9.99863E+02  2.988E+00  4.332E+01  4.415E+00 -1.955E-01
   1   13    1     8     6    1.7680E+02 -1.9929E+00   1.7880E+02  0.000E+00  0.000E+00  0.000E+00  9.94877E+02  3.002E+00  4.353E+01  2.662E+00 -2.496E-01
   1    8    6     9     1    0.0000E+00  0.0000E+00   0.0000E+00  0.000E+00  0.000E+00  0.000E+00  1.07875E+03  0.000E+00  4.000E+00  0.000E+00  1.000E+00
   1    8    5     9     2    0.0000E+00  0.0000E+00   0.0000E+00  0.000E+00  0.000E+00  0.000E+00  1.07825E+03  0.000E+00  4.000E+00  0.000E+00  1.000E+00





UNSATURATED ZONE PACKAGE VOLUMETRIC BUDGET FOR  TIME STEP    30 STRESS PERIOD   36
  ------------------------------------------------------------------------------



     CUMULATIVE VOLUMES      L**3       RATES FOR THIS TIME STEP      L**3/T
     ------------------                 ------------------------

           IN:                                      IN:
           ---                                      ---
        INFILTRATION =  1596758235.3235          INFILTRATION =           4.4075

          OUT:                                     OUT:
          ----                                     ----
              UZF ET =  1489653182.8674                UZF ET =           0.7250
        UZF RECHARGE =     1188922.5148          UZF RECHARGE =       0.0000E+00

            IN - OUT =   105916129.9412              IN - OUT =           3.6825

          STORAGE:                                 STORAGE:
          --------                                 --------
      STORAGE CHANGE =   105917097.4205        STORAGE CHANGE =           3.6825

 PERCENT DISCREPANCY IS DIFFERENCE BETWEEN IN-OUT MINUS CHANGE IN STORAGE
 DIVIDED BY THE AVERAGE OF IN AND OUT TIMES 100

 PERCENT DISCREPANCY =          -0.00     PERCENT DISCREPANCY =           0.00






1
  VOLUMETRIC BUDGET FOR AGRICULTURAL FIELDS AT TIME STEP   30, STRESS PERIOD  36
  ------------------------------------------------------------------------------

     CUMULATIVE VOLUMES      L**3       RATES FOR THIS TIME STEP      L**3/T
     ------------------                 ------------------------

           IN:                                      IN:
           ---                                      ---
               AG WELLS  =   218905344.0000                 AG WELLS  =           0.0000
      DIVERSION SEGMENTS =   972051904.0000        DIVERSION SEGMENTS =           0.0000
           GW IRRIGATION =           0.0000             GW IRRIGATION =           0.0000
           SW IRRIGATION =           0.0000             SW IRRIGATION =           0.0000
        SYSTEM LOSSES GW =           0.0000          SYSTEM LOSSES GW =           0.0000
        SYSTEM LOSSES SW =           0.0000          SYSTEM LOSSES SW =           0.0000

                TOTAL IN =  1190957312.0000                  TOTAL IN =           0.0000

          OUT:                                     OUT:
          ----                                     ----
               AG WELLS  =           0.0000                 AG WELLS  =           0.0000
      DIVERSION SEGMENTS =           0.0000        DIVERSION SEGMENTS =           0.0000
           GW IRRIGATION =   218905344.0000             GW IRRIGATION =           0.0000
           SW IRRIGATION =   972071424.0000             SW IRRIGATION =           0.0000
        SYSTEM LOSSES GW =           0.0000          SYSTEM LOSSES GW =           0.0000
        SYSTEM LOSSES SW =           0.0000          SYSTEM LOSSES SW =           0.0000

               TOTAL OUT =  1190976768.0000                 TOTAL OUT =           0.0000

                IN - OUT =      -19456.0000                  IN - OUT =           0.0000

     PERCENT DISCREPANCY =          -0.00         PERCENT DISCREPANCY =           0.00



1
  VOLUMETRIC BUDGET FOR ENTIRE MODEL AT END OF TIME STEP   30, STRESS PERIOD  36
  ------------------------------------------------------------------------------

     CUMULATIVE VOLUMES      L**3       RATES FOR THIS TIME STEP      L**3/T
     ------------------                 ------------------------

           IN:                                      IN:
           ---                                      ---
             STORAGE     =   368934048.0000               STORAGE     =           1.2478
       CONSTANT HEAD     =           0.0000         CONSTANT HEAD     =           0.0000
     HEAD DEP BOUNDS     =    26334882.0000       HEAD DEP BOUNDS     =           0.2861
      STREAM LEAKAGE     =  1099970944.0000        STREAM LEAKAGE     =          11.4742
        UZF RECHARGE     =     1188922.5000          UZF RECHARGE     =           0.0000
               GW ET     =           0.0000                 GW ET     =           0.0000
     SURFACE LEAKAGE     =           0.0000       SURFACE LEAKAGE     =           0.0000
           AG WELLS      =           0.0000             AG WELLS      =           0.0000

                TOTAL IN =  1496428800.0000                  TOTAL IN =          13.0081

          OUT:                                     OUT:
          ----                                     ----
             STORAGE     =   249869600.0000               STORAGE     =           1.9476
       CONSTANT HEAD     =           0.0000         CONSTANT HEAD     =           0.0000
     HEAD DEP BOUNDS     =    26783812.0000       HEAD DEP BOUNDS     =           0.2898
      STREAM LEAKAGE     =   997527488.0000        STREAM LEAKAGE     =          10.7709
        UZF RECHARGE     =           0.0000          UZF RECHARGE     =           0.0000
               GW ET     =     3295915.0000                 GW ET     =           0.0000
     SURFACE LEAKAGE     =           0.0000       SURFACE LEAKAGE     =           0.0000
           AG WELLS      =   218905344.0000             AG WELLS      =           0.0000

               TOTAL OUT =  1496382080.0000                 TOTAL OUT =          13.0083

                IN - OUT =       46720.0000                  IN - OUT =      -1.9646E-04

     PERCENT DISCREPANCY =           0.00         PERCENT DISCREPANCY =          -0.00






         TIME SUMMARY AT END OF TIME STEP   30 IN STRESS PERIOD   36
                    SECONDS     MINUTES      HOURS       DAYS        YEARS
                    -----------------------------------------------------------
   TIME STEP LENGTH  87667.      1461.1      24.352      1.0147     2.77799E-03
 STRESS PERIOD TIME 2.63000E+06  43833.      730.56      30.440     8.33397E-02
         TOTAL TIME 9.21360E+07 1.53560E+06  25593.      1066.4      2.9196    
1
1
                            STRESS PERIOD NO.   37, LENGTH =   2630000.    
                            -----------------------------------------------

                              NUMBER OF TIME STEPS =    30

                               MULTIPLIER FOR DELT =     1.000

                            INITIAL TIME STEP SIZE =   87666.66    

 REUSING NON-PARAMETER GHB CELLS FROM LAST STRESS PERIOD

      2 GHB CELLS

 REUSING STREAM SEGMENT DATA FROM LAST STRESS PERIOD



            AREAL INFILTRATION RATE
 READING ON UNIT   19 WITH FORMAT: (10F4.0)            

            1           2           3           4           5           6           7           8           9          10
 ........................................................................................................................
   1   1.2000E-09   0.000       0.000       0.000       0.000       0.000       0.000       0.000       0.000       0.000    
   2   2.1000E-09  2.0000E-09  8.0000E-10  8.5000E-09   0.000       0.000       0.000       0.000       0.000       0.000    
   3   5.0000E-10  1.1000E-09  8.8000E-09  5.5000E-09   0.000       0.000       0.000       0.000       0.000       0.000    
   4   8.5000E-09  1.1000E-09  1.1000E-09  1.1000E-09  2.0000E-09   0.000       0.000       0.000       0.000       0.000    
   5   8.5000E-09  1.1000E-09  1.1000E-09  1.1000E-09  1.1000E-09   0.000       0.000       0.000       0.000       0.000    
   6   8.5000E-09  5.2000E-09  2.1000E-09  1.1000E-09  1.5000E-09   0.000       0.000       0.000       0.000       0.000    
   7   8.5000E-09  5.2000E-09  2.1000E-09  1.2000E-09  2.0000E-09   0.000       0.000       0.000       0.000       0.000    
   8   5.0000E-10  5.2000E-09  2.1000E-09  1.2000E-09  5.0000E-09   0.000       0.000       0.000       0.000       0.000    
   9   5.0000E-10  5.2000E-09  2.1000E-09  1.2000E-09  5.0000E-09   0.000       0.000       0.000       0.000       0.000    
  10   5.0000E-10  5.2000E-09  2.1000E-09  1.2000E-09  5.8000E-09   0.000       0.000       0.000       0.000       0.000    
  11   1.0000E-10  1.1000E-09  1.1000E-09  1.2000E-09  5.0000E-09   0.000       0.000       0.000       0.000       0.000    
  12   1.1000E-09  1.1000E-09  1.1000E-09  1.1000E-09  2.0000E-09   0.000       0.000       0.000       0.000       0.000    
  13   1.1000E-09  2.2000E-09  2.2000E-09  2.1000E-09  1.0000E-09   0.000       0.000       0.000       0.000       0.000    
  14   2.0000E-10  5.5000E-09  5.5000E-09  5.2000E-09  1.0000E-09   0.000       0.000       0.000       0.000       0.000    
  15    0.000      8.8000E-09  8.8000E-09   0.000       0.000       0.000       0.000       0.000       0.000       0.000    

                  ET RATE =  5.000000E-10

 USING ET EXTINCTION DEPTH FROM PREVIOUS STRESS PERIOD. CURRENT PERIOD IS:      37

 USING EXTINCTION WATER CONTENT FROM PREVIOUS STRESS PERIOD. CURRENT PERIOD IS:      37

 USING AIR ENTRY PRESSURE FROM PREVIOUS STRESS PERIOD. CURRENT PERIOD IS:      37

 USING ROOT PRESSURE HEAD FROM PREVIOUS STRESS PERIOD. CURRENT PERIOD IS:      37

 USING ROOT ACTIVITY FROM PREVIOUS STRESS PERIOD. CURRENT PERIOD IS:      37

 PROCESSING AG STRESS PERIOD DATA

 READING AG STRESS PERIOD DATA

 READING IRRIGATION SEGMENT

 READING IRRIGATION WELL

 READING SUPPLEMENTAL WELL

 END PROCESSING AG STRESS PERIOD DATA OPTIONS
 
 SOLVING FOR HEAD 
                                                   Max.-Head-Change                         Max.-Flux-Residual
  Residual-Control   Outer-Iter.   Inner-Iter.     Column Row Layer    Maximum-Head-Change  Column Row Layer    Maximum-Flux-Residual          L2-NORM 
          0                 1           2             4    7     1       0.4565820229E-02       4    7    1         0.2400372212E+00      0.5504241468E+00
          0                 2           2             4    7     1      -0.4441303215E-03       4    7    1        -0.2400375732E-01      0.5502985774E-01
          0                 3           1             4    7     1       0.3024362395E-04       4    7    1         0.1680263408E-02      0.3851021056E-02

    ------------------------------------------------
       NWT REQUIRED            3 OUTER ITERATIONS 
       AND A TOTAL OF          5 INNER ITERATIONS.
    ------------------------------------------------

 NO OUTPUT CONTROL FOR STRESS PERIOD   37   TIME STEP    1
 
 SOLVING FOR HEAD 
                                                   Max.-Head-Change                         Max.-Flux-Residual
  Residual-Control   Outer-Iter.   Inner-Iter.     Column Row Layer    Maximum-Head-Change  Column Row Layer    Maximum-Flux-Residual          L2-NORM 
          0                 1           2             4    7     1       0.4512863643E-02       4    7    1         0.2372365206E+00      0.5588884993E+00
          0                 2           2             4    7     1      -0.4389790749E-03       4    7    1        -0.2372368625E-01      0.5627429163E-01
          0                 3           1             4    7     1       0.2989284316E-04       4    7    1         0.1660658433E-02      0.3963115349E-02

    ------------------------------------------------
       NWT REQUIRED            3 OUTER ITERATIONS 
       AND A TOTAL OF          5 INNER ITERATIONS.
    ------------------------------------------------

 NO OUTPUT CONTROL FOR STRESS PERIOD   37   TIME STEP    2
 
 SOLVING FOR HEAD 
                                                   Max.-Head-Change                         Max.-Flux-Residual
  Residual-Control   Outer-Iter.   Inner-Iter.     Column Row Layer    Maximum-Head-Change  Column Row Layer    Maximum-Flux-Residual          L2-NORM 
          0                 1           2             4    7     1       0.4460671644E-02       4    7    1         0.2344759882E+00      0.5528509638E+00
          0                 2           2             4    7     1      -0.4339022028E-03       4    7    1        -0.2344763208E-01      0.5523607945E-01
          0                 3           1             4    7     1       0.2954712717E-04       4    7    1         0.1641334636E-02      0.3862203349E-02

    ------------------------------------------------
       NWT REQUIRED            3 OUTER ITERATIONS 
       AND A TOTAL OF          5 INNER ITERATIONS.
    ------------------------------------------------

 NO OUTPUT CONTROL FOR STRESS PERIOD   37   TIME STEP    3
 
 SOLVING FOR HEAD 
                                                   Max.-Head-Change                         Max.-Flux-Residual
  Residual-Control   Outer-Iter.   Inner-Iter.     Column Row Layer    Maximum-Head-Change  Column Row Layer    Maximum-Flux-Residual          L2-NORM 
          0                 1           2             4    7     1       0.4409503541E-02       4    7    1         0.2317698907E+00      0.5470291792E+00
          0                 2           2             4    7     1      -0.4289249284E-03       4    7    1        -0.2317702141E-01      0.5465996246E-01
          0                 3           1             4    7     1       0.2920819353E-04       4    7    1         0.1622391907E-02      0.3822316374E-02

    ------------------------------------------------
       NWT REQUIRED            3 OUTER ITERATIONS 
       AND A TOTAL OF          5 INNER ITERATIONS.
    ------------------------------------------------

 NO OUTPUT CONTROL FOR STRESS PERIOD   37   TIME STEP    4
 
 SOLVING FOR HEAD 
                                                   Max.-Head-Change                         Max.-Flux-Residual
  Residual-Control   Outer-Iter.   Inner-Iter.     Column Row Layer    Maximum-Head-Change  Column Row Layer    Maximum-Flux-Residual          L2-NORM 
          0                 1           2             4    7     1       0.4359332210E-02       4    7    1         0.2291168810E+00      0.5414417521E+00
          0                 2           2             4    7     1      -0.4240446128E-03       4    7    1        -0.2291171955E-01      0.5410674578E-01
          0                 3           1             4    7     1       0.2887586213E-04       4    7    1         0.1603820767E-02      0.3784171863E-02

    ------------------------------------------------
       NWT REQUIRED            3 OUTER ITERATIONS 
       AND A TOTAL OF          5 INNER ITERATIONS.
    ------------------------------------------------

 NO OUTPUT CONTROL FOR STRESS PERIOD   37   TIME STEP    5
 
 SOLVING FOR HEAD 
                                                   Max.-Head-Change                         Max.-Flux-Residual
  Residual-Control   Outer-Iter.   Inner-Iter.     Column Row Layer    Maximum-Head-Change  Column Row Layer    Maximum-Flux-Residual          L2-NORM 
          0                 1           2             4    7     1       0.4310136439E-02       4    7    1         0.2265155527E+00      0.5360691698E+00
          0                 2           2             4    7     1      -0.4192591929E-03       4    7    1        -0.2265158585E-01      0.5357399372E-01
          0                 3           1             4    7     1       0.2854999262E-04       4    7    1         0.1585611399E-02      0.3747203513E-02

    ------------------------------------------------
       NWT REQUIRED            3 OUTER ITERATIONS 
       AND A TOTAL OF          5 INNER ITERATIONS.
    ------------------------------------------------

 NO OUTPUT CONTROL FOR STRESS PERIOD   37   TIME STEP    6
 
 SOLVING FOR HEAD 
                                                   Max.-Head-Change                         Max.-Flux-Residual
  Residual-Control   Outer-Iter.   Inner-Iter.     Column Row Layer    Maximum-Head-Change  Column Row Layer    Maximum-Flux-Residual          L2-NORM 
          0                 1           2             4    7     1       0.4261611777E-02       4    7    1         0.2239500137E+00      0.5308760733E+00
          0                 2           2             4    7     1      -0.4145390547E-03       4    7    1        -0.2239503115E-01      0.5305857065E-01
          0                 3           1             4    7     1       0.2822856902E-04       4    7    1         0.1567652575E-02      0.3711409206E-02

    ------------------------------------------------
       NWT REQUIRED            3 OUTER ITERATIONS 
       AND A TOTAL OF          5 INNER ITERATIONS.
    ------------------------------------------------

 NO OUTPUT CONTROL FOR STRESS PERIOD   37   TIME STEP    7
 
 SOLVING FOR HEAD 
                                                   Max.-Head-Change                         Max.-Flux-Residual
  Residual-Control   Outer-Iter.   Inner-Iter.     Column Row Layer    Maximum-Head-Change  Column Row Layer    Maximum-Flux-Residual          L2-NORM 
          0                 1           2             4    7     1       0.4214022392E-02       4    7    1         0.2214340633E+00      0.5258547325E+00
          0                 2           2             4    7     1      -0.4099098930E-03       4    7    1        -0.2214343528E-01      0.5255983352E-01
          0                 3           1             4    7     1       0.2791334034E-04       4    7    1         0.1550040856E-02      0.3676709462E-02

    ------------------------------------------------
       NWT REQUIRED            3 OUTER ITERATIONS 
       AND A TOTAL OF          5 INNER ITERATIONS.
    ------------------------------------------------

 NO OUTPUT CONTROL FOR STRESS PERIOD   37   TIME STEP    8
 
 SOLVING FOR HEAD 
                                                   Max.-Head-Change                         Max.-Flux-Residual
  Residual-Control   Outer-Iter.   Inner-Iter.     Column Row Layer    Maximum-Head-Change  Column Row Layer    Maximum-Flux-Residual          L2-NORM 
          0                 1           2             4    7     1       0.4167075684E-02       4    7    1         0.2189518131E+00      0.5209798536E+00
          0                 2           2             4    7     1      -0.4053432471E-03       4    7    1        -0.2189520948E-01      0.5207547038E-01
          0                 3           1             4    7     1       0.2760236917E-04       4    7    1         0.1532665064E-02      0.3643246278E-02

    ------------------------------------------------
       NWT REQUIRED            3 OUTER ITERATIONS 
       AND A TOTAL OF          5 INNER ITERATIONS.
    ------------------------------------------------

 NO OUTPUT CONTROL FOR STRESS PERIOD   37   TIME STEP    9
 
 SOLVING FOR HEAD 
                                                   Max.-Head-Change                         Max.-Flux-Residual
  Residual-Control   Outer-Iter.   Inner-Iter.     Column Row Layer    Maximum-Head-Change  Column Row Layer    Maximum-Flux-Residual          L2-NORM 
          0                 1           2             4    7     1       0.4121032318E-02       4    7    1         0.2165176777E+00      0.5162620266E+00
          0                 2           2             4    7     1      -0.4008644722E-03       4    7    1        -0.2165179521E-01      0.5160635463E-01
          0                 3           1             4    7     1       0.2729738087E-04       4    7    1         0.1515626047E-02      0.3610666493E-02

    ------------------------------------------------
       NWT REQUIRED            3 OUTER ITERATIONS 
       AND A TOTAL OF          5 INNER ITERATIONS.
    ------------------------------------------------

 NO OUTPUT CONTROL FOR STRESS PERIOD   37   TIME STEP   10
 
 SOLVING FOR HEAD 
                                                   Max.-Head-Change                         Max.-Flux-Residual
  Residual-Control   Outer-Iter.   Inner-Iter.     Column Row Layer    Maximum-Head-Change  Column Row Layer    Maximum-Flux-Residual          L2-NORM 
          0                 1           2             4    7     1       0.4075870370E-02       4    7    1         0.2141303796E+00      0.5116666050E+00
          0                 2           2             4    7     1      -0.3964714352E-03       4    7    1        -0.2141306464E-01      0.5114915153E-01
          0                 3           1             4    7     1       0.2699823153E-04       4    7    1         0.1498914911E-02      0.3578750240E-02

    ------------------------------------------------
       NWT REQUIRED            3 OUTER ITERATIONS 
       AND A TOTAL OF          5 INNER ITERATIONS.
    ------------------------------------------------

 NO OUTPUT CONTROL FOR STRESS PERIOD   37   TIME STEP   11
 
 SOLVING FOR HEAD 
                                                   Max.-Head-Change                         Max.-Flux-Residual
  Residual-Control   Outer-Iter.   Inner-Iter.     Column Row Layer    Maximum-Head-Change  Column Row Layer    Maximum-Flux-Residual          L2-NORM 
          0                 1           2             4    7     1       0.4031299248E-02       4    7    1         0.2117739888E+00      0.5071924137E+00
          0                 2           2             4    7     1      -0.3921358701E-03       4    7    1        -0.2117742486E-01      0.5070376252E-01
          0                 3           1             4    7     1       0.2670299607E-04       4    7    1         0.1482420134E-02      0.3547830809E-02

    ------------------------------------------------
       NWT REQUIRED            3 OUTER ITERATIONS 
       AND A TOTAL OF          5 INNER ITERATIONS.
    ------------------------------------------------

 NO OUTPUT CONTROL FOR STRESS PERIOD   37   TIME STEP   12
 
 SOLVING FOR HEAD 
                                                   Max.-Head-Change                         Max.-Flux-Residual
  Residual-Control   Outer-Iter.   Inner-Iter.     Column Row Layer    Maximum-Head-Change  Column Row Layer    Maximum-Flux-Residual          L2-NORM 
          0                 1           2             4    7     1       0.3987576137E-02       4    7    1         0.2094630248E+00      0.5028245983E+00
          0                 2           2             4    7     1      -0.3878827937E-03       4    7    1        -0.2094632779E-01      0.5026864348E-01
          0                 3           1             4    7     1       0.2641337709E-04       4    7    1         0.1466243325E-02      0.3517610713E-02

    ------------------------------------------------
       NWT REQUIRED            3 OUTER ITERATIONS 
       AND A TOTAL OF          5 INNER ITERATIONS.
    ------------------------------------------------

 NO OUTPUT CONTROL FOR STRESS PERIOD   37   TIME STEP   13
 
 SOLVING FOR HEAD 
                                                   Max.-Head-Change                         Max.-Flux-Residual
  Residual-Control   Outer-Iter.   Inner-Iter.     Column Row Layer    Maximum-Head-Change  Column Row Layer    Maximum-Flux-Residual          L2-NORM 
          0                 1           2             4    7     1       0.3944680099E-02       4    7    1         0.2071960291E+00      0.4985679827E+00
          0                 2           2             4    7     1      -0.3837101691E-03       4    7    1        -0.2071962754E-01      0.4984468379E-01
          0                 3           1             4    7     1       0.2612923710E-04       4    7    1         0.1450374322E-02      0.3488040049E-02

    ------------------------------------------------
       NWT REQUIRED            3 OUTER ITERATIONS 
       AND A TOTAL OF          5 INNER ITERATIONS.
    ------------------------------------------------

 NO OUTPUT CONTROL FOR STRESS PERIOD   37   TIME STEP   14
 
 SOLVING FOR HEAD 
                                                   Max.-Head-Change                         Max.-Flux-Residual
  Residual-Control   Outer-Iter.   Inner-Iter.     Column Row Layer    Maximum-Head-Change  Column Row Layer    Maximum-Flux-Residual          L2-NORM 
          0                 1           2             4    7     1       0.3902320175E-02       4    7    1         0.2049571227E+00      0.4944003121E+00
          0                 2           2             4    7     1      -0.3795896936E-03       4    7    1        -0.2049573623E-01      0.4942915576E-01
          0                 3           1             4    7     1       0.2584864792E-04       4    7    1         0.1434701934E-02      0.3459092699E-02

    ------------------------------------------------
       NWT REQUIRED            3 OUTER ITERATIONS 
       AND A TOTAL OF          5 INNER ITERATIONS.
    ------------------------------------------------

 NO OUTPUT CONTROL FOR STRESS PERIOD   37   TIME STEP   15
 
 SOLVING FOR HEAD 
                                                   Max.-Head-Change                         Max.-Flux-Residual
  Residual-Control   Outer-Iter.   Inner-Iter.     Column Row Layer    Maximum-Head-Change  Column Row Layer    Maximum-Flux-Residual          L2-NORM 
          0                 1           2             4    7     1       0.3860760755E-02       4    7    1         0.2027608066E+00      0.4903307836E+00
          0                 2           2             4    7     1      -0.3755509271E-03       4    7    1        -0.2027610401E-01      0.4902868630E-01
          0                 3           1             4    7     1       0.2557362316E-04       4    7    1         0.1419327677E-02      0.3431139453E-02

    ------------------------------------------------
       NWT REQUIRED            3 OUTER ITERATIONS 
       AND A TOTAL OF          5 INNER ITERATIONS.
    ------------------------------------------------

 NO OUTPUT CONTROL FOR STRESS PERIOD   37   TIME STEP   16
 
 SOLVING FOR HEAD 
                                                   Max.-Head-Change                         Max.-Flux-Residual
  Residual-Control   Outer-Iter.   Inner-Iter.     Column Row Layer    Maximum-Head-Change  Column Row Layer    Maximum-Flux-Residual          L2-NORM 
          0                 1           2             4    7     1       0.3819960636E-02       4    7    1         0.2006057917E+00      0.4863425099E+00
          0                 2           2             4    7     1      -0.3715783390E-03       4    7    1        -0.2006060193E-01      0.4862565578E-01
          0                 3           1             4    7     1       0.2530310443E-04       4    7    1         0.1404242512E-02      0.3403040314E-02

    ------------------------------------------------
       NWT REQUIRED            3 OUTER ITERATIONS 
       AND A TOTAL OF          5 INNER ITERATIONS.
    ------------------------------------------------

 NO OUTPUT CONTROL FOR STRESS PERIOD   37   TIME STEP   17
 
 SOLVING FOR HEAD 
                                                   Max.-Head-Change                         Max.-Flux-Residual
  Residual-Control   Outer-Iter.   Inner-Iter.     Column Row Layer    Maximum-Head-Change  Column Row Layer    Maximum-Flux-Residual          L2-NORM 
          0                 1           2             4    7     1       0.3779915209E-02       4    7    1         0.1984905536E+00      0.4824312943E+00
          0                 2           2             4    7     1      -0.3676830025E-03       4    7    1        -0.1984907753E-01      0.4823531362E-01
          0                 3           1             4    7     1       0.2503784694E-04       4    7    1         0.1389435827E-02      0.3377770024E-02

    ------------------------------------------------
       NWT REQUIRED            3 OUTER ITERATIONS 
       AND A TOTAL OF          5 INNER ITERATIONS.
    ------------------------------------------------

 NO OUTPUT CONTROL FOR STRESS PERIOD   37   TIME STEP   18
 
 SOLVING FOR HEAD 
                                                   Max.-Head-Change                         Max.-Flux-Residual
  Residual-Control   Outer-Iter.   Inner-Iter.     Column Row Layer    Maximum-Head-Change  Column Row Layer    Maximum-Flux-Residual          L2-NORM 
          0                 1           2             4    7     1       0.3740331133E-02       4    7    1         0.1963994474E+00      0.4785950096E+00
          0                 2           2             4    7     1      -0.3638325428E-03       4    7    1        -0.1963996635E-01      0.4785268012E-01
          0                 3           1             4    7     1       0.2477564444E-04       4    7    1         0.1374798021E-02      0.3349179629E-02

    ------------------------------------------------
       NWT REQUIRED            3 OUTER ITERATIONS 
       AND A TOTAL OF          5 INNER ITERATIONS.
    ------------------------------------------------

 NO OUTPUT CONTROL FOR STRESS PERIOD   37   TIME STEP   19
 
 SOLVING FOR HEAD 
                                                   Max.-Head-Change                         Max.-Flux-Residual
  Residual-Control   Outer-Iter.   Inner-Iter.     Column Row Layer    Maximum-Head-Change  Column Row Layer    Maximum-Flux-Residual          L2-NORM 
          0                 1           2             4    7     1       0.3701469400E-02       4    7    1         0.1943470556E+00      0.4748211400E+00
          0                 2           2             4    7     1      -0.3600523483E-03       4    7    1        -0.1943472665E-01      0.4747597089E-01
          0                 3           1             4    7     1       0.2451822794E-04       4    7    1         0.1360431257E-02      0.3322707371E-02

    ------------------------------------------------
       NWT REQUIRED            3 OUTER ITERATIONS 
       AND A TOTAL OF          5 INNER ITERATIONS.
    ------------------------------------------------

 NO OUTPUT CONTROL FOR STRESS PERIOD   37   TIME STEP   20
 
 SOLVING FOR HEAD 
                                                   Max.-Head-Change                         Max.-Flux-Residual
  Residual-Control   Outer-Iter.   Inner-Iter.     Column Row Layer    Maximum-Head-Change  Column Row Layer    Maximum-Flux-Residual          L2-NORM 
          0                 1           2             4    7     1       0.3663049349E-02       4    7    1         0.1923173223E+00      0.4711315177E+00
          0                 2           2             4    7     1      -0.3563151166E-03       4    7    1        -0.1923175275E-01      0.4710749443E-01
          0                 3           1             4    7     1       0.2426373624E-04       4    7    1         0.1346223084E-02      0.3297002163E-02

    ------------------------------------------------
       NWT REQUIRED            3 OUTER ITERATIONS 
       AND A TOTAL OF          5 INNER ITERATIONS.
    ------------------------------------------------

 NO OUTPUT CONTROL FOR STRESS PERIOD   37   TIME STEP   21
 
 SOLVING FOR HEAD 
                                                   Max.-Head-Change                         Max.-Flux-Residual
  Residual-Control   Outer-Iter.   Inner-Iter.     Column Row Layer    Maximum-Head-Change  Column Row Layer    Maximum-Flux-Residual          L2-NORM 
          0                 1           2             4    7     1       0.3625335901E-02       4    7    1         0.1903252840E+00      0.4675048023E+00
          0                 2           2             4    7     1      -0.3526466192E-03       4    7    1        -0.1903254842E-01      0.4674543605E-01
          0                 3           1             4    7     1       0.2401392524E-04       4    7    1         0.1332278774E-02      0.3271728228E-02

    ------------------------------------------------
       NWT REQUIRED            3 OUTER ITERATIONS 
       AND A TOTAL OF          5 INNER ITERATIONS.
    ------------------------------------------------

 NO OUTPUT CONTROL FOR STRESS PERIOD   37   TIME STEP   22
 
 SOLVING FOR HEAD 
                                                   Max.-Head-Change                         Max.-Flux-Residual
  Residual-Control   Outer-Iter.   Inner-Iter.     Column Row Layer    Maximum-Head-Change  Column Row Layer    Maximum-Flux-Residual          L2-NORM 
          0                 1           2             4    7     1       0.3588308452E-02       4    7    1         0.1883698821E+00      0.4639389549E+00
          0                 2           2             4    7     1      -0.3490448503E-03       4    7    1        -0.1883700773E-01      0.4638933992E-01
          0                 3           1             4    7     1       0.2376865789E-04       4    7    1         0.1318590910E-02      0.3246818305E-02

    ------------------------------------------------
       NWT REQUIRED            3 OUTER ITERATIONS 
       AND A TOTAL OF          5 INNER ITERATIONS.
    ------------------------------------------------

 NO OUTPUT CONTROL FOR STRESS PERIOD   37   TIME STEP   23
 
 SOLVING FOR HEAD 
                                                   Max.-Head-Change                         Max.-Flux-Residual
  Residual-Control   Outer-Iter.   Inner-Iter.     Column Row Layer    Maximum-Head-Change  Column Row Layer    Maximum-Flux-Residual          L2-NORM 
          0                 1           2             4    7     1       0.3551950559E-02       4    7    1         0.1864500486E+00      0.4604417130E+00
          0                 2           2             4    7     1      -0.3455082119E-03       4    7    1        -0.1864502389E-01      0.4604003377E-01
          0                 3           1             4    7     1       0.2352782627E-04       4    7    1         0.1305152055E-02      0.3222415240E-02

    ------------------------------------------------
       NWT REQUIRED            3 OUTER ITERATIONS 
       AND A TOTAL OF          5 INNER ITERATIONS.
    ------------------------------------------------

 NO OUTPUT CONTROL FOR STRESS PERIOD   37   TIME STEP   24
 
 SOLVING FOR HEAD 
                                                   Max.-Head-Change                         Max.-Flux-Residual
  Residual-Control   Outer-Iter.   Inner-Iter.     Column Row Layer    Maximum-Head-Change  Column Row Layer    Maximum-Flux-Residual          L2-NORM 
          0                 1           2             4    7     1       0.3516253342E-02       4    7    1         0.1845649307E+00      0.4570089466E+00
          0                 2           2             4    7     1      -0.3420358392E-03       4    7    1        -0.1845651163E-01      0.4569708259E-01
          0                 3           1             4    7     1       0.2329137073E-04       4    7    1         0.1291956194E-02      0.3198384134E-02

    ------------------------------------------------
       NWT REQUIRED            3 OUTER ITERATIONS 
       AND A TOTAL OF          5 INNER ITERATIONS.
    ------------------------------------------------

 NO OUTPUT CONTROL FOR STRESS PERIOD   37   TIME STEP   25
 
 SOLVING FOR HEAD 
                                                   Max.-Head-Change                         Max.-Flux-Residual
  Residual-Control   Outer-Iter.   Inner-Iter.     Column Row Layer    Maximum-Head-Change  Column Row Layer    Maximum-Flux-Residual          L2-NORM 
          0                 1           2             4    7     1       0.3480923031E-02       4    7    1         0.1826992734E+00      0.4536236563E+00
          0                 2           2             4    7     1      -0.3385991563E-03       4    7    1        -0.1826994544E-01      0.4535894744E-01
          0                 3           1             4    7     1       0.2305734536E-04       4    7    1         0.1278896556E-02      0.3174807772E-02

    ------------------------------------------------
       NWT REQUIRED            3 OUTER ITERATIONS 
       AND A TOTAL OF          5 INNER ITERATIONS.
    ------------------------------------------------

 NO OUTPUT CONTROL FOR STRESS PERIOD   37   TIME STEP   26
 
 SOLVING FOR HEAD 
                                                   Max.-Head-Change                         Max.-Flux-Residual
  Residual-Control   Outer-Iter.   Inner-Iter.     Column Row Layer    Maximum-Head-Change  Column Row Layer    Maximum-Flux-Residual          L2-NORM 
          0                 1           2             4    7     1       0.3446234557E-02       4    7    1         0.1808674345E+00      0.4503063872E+00
          0                 2           2             4    7     1      -0.3352249075E-03       4    7    1        -0.1808676111E-01      0.4502753356E-01
          0                 3           1             4    7     1       0.2282757159E-04       4    7    1         0.1266073667E-02      0.3151655778E-02

    ------------------------------------------------
       NWT REQUIRED            3 OUTER ITERATIONS 
       AND A TOTAL OF          5 INNER ITERATIONS.
    ------------------------------------------------

 NO OUTPUT CONTROL FOR STRESS PERIOD   37   TIME STEP   27
 
 SOLVING FOR HEAD 
                                                   Max.-Head-Change                         Max.-Flux-Residual
  Residual-Control   Outer-Iter.   Inner-Iter.     Column Row Layer    Maximum-Head-Change  Column Row Layer    Maximum-Flux-Residual          L2-NORM 
          0                 1           2             4    7     1       0.3411898319E-02       4    7    1         0.1790540792E+00      0.4470316430E+00
          0                 2           2             4    7     1      -0.3318849207E-03       4    7    1        -0.1790542512E-01      0.4470033227E-01
          0                 3           1             4    7     1       0.2260013071E-04       4    7    1         0.1253380126E-02      0.3128756613E-02

    ------------------------------------------------
       NWT REQUIRED            3 OUTER ITERATIONS 
       AND A TOTAL OF          5 INNER ITERATIONS.
    ------------------------------------------------

 NO OUTPUT CONTROL FOR STRESS PERIOD   37   TIME STEP   28
 
 SOLVING FOR HEAD 
                                                   Max.-Head-Change                         Max.-Flux-Residual
  Residual-Control   Outer-Iter.   Inner-Iter.     Column Row Layer    Maximum-Head-Change  Column Row Layer    Maximum-Flux-Residual          L2-NORM 
          0                 1           2             4    7     1       0.3378450381E-02       4    7    1         0.1772885770E+00      0.4438162860E+00
          0                 2           2             4    7     1      -0.3286313431E-03       4    7    1        -0.1772887451E-01      0.4437906135E-01
          0                 3           1             4    7     1       0.2237857447E-04       4    7    1         0.1241021599E-02      0.3106255402E-02

    ------------------------------------------------
       NWT REQUIRED            3 OUTER ITERATIONS 
       AND A TOTAL OF          5 INNER ITERATIONS.
    ------------------------------------------------

 NO OUTPUT CONTROL FOR STRESS PERIOD   37   TIME STEP   29
 
 SOLVING FOR HEAD 
                                                   Max.-Head-Change                         Max.-Flux-Residual
  Residual-Control   Outer-Iter.   Inner-Iter.     Column Row Layer    Maximum-Head-Change  Column Row Layer    Maximum-Flux-Residual          L2-NORM 
          0                 1           2             4    7     1       0.3345325290E-02       4    7    1         0.1755395417E+00      0.4406489824E+00
          0                 2           2             4    7     1      -0.3254091687E-03       4    7    1        -0.1755397057E-01      0.4406249612E-01
          0                 3           1             4    7     1       0.2215915633E-04       4    7    1         0.1228778308E-02      0.3084126737E-02

    ------------------------------------------------
       NWT REQUIRED            3 OUTER ITERATIONS 
       AND A TOTAL OF          5 INNER ITERATIONS.
    ------------------------------------------------

 NO OUTPUT CONTROL FOR STRESS PERIOD   37   TIME STEP   30



 STREAM LISTING     PERIOD     37   STEP       30

 LAYER ROW COL. STREAM  RCH.  FLOW INTO     FLOW TO   FLOW OUT OF   OVRLND.     DIRECT     STREAM       STREAM     STREAM     STREAM   STREAMBED  STREAMBED
                SEG.NO.  NO.  STRM. RCH.    AQUIFER    STRM. RCH.    RUNOFF     PRECIP       ET          HEAD       DEPTH      WIDTH   CONDCTNC.   GRADIENT

   1    1    1     1     1    1.7249E+01  2.0269E-01   1.7047E+01  0.000E+00  0.000E+00  0.000E+00  1.09410E+03  1.052E+00  1.112E+01  5.002E-02  1.351E+00
   1    2    2     1     2    1.7047E+01  3.1257E-01   1.6734E+01  0.000E+00  0.000E+00  0.000E+00  1.08911E+03  1.047E+00  1.103E+01  7.723E-02  1.349E+00
   1    3    3     1     3    1.6734E+01  2.6529E-01   1.6469E+01  0.000E+00  0.000E+00  0.000E+00  1.08346E+03  1.042E+00  1.094E+01  6.563E-02  1.347E+00
   1    3    4     1     4    1.6469E+01  2.4324E-01   1.6226E+01  0.000E+00  0.000E+00  0.000E+00  1.07845E+03  1.038E+00  1.085E+01  6.024E-02  1.346E+00
   1    4    5     2     1    1.4226E+01  3.0073E-01   1.3925E+01  0.000E+00  0.000E+00  0.000E+00  1.07279E+03  8.555E-01  1.200E+01  7.800E-02  1.285E+00
   1    5    6     2     2    1.3925E+01  2.3075E-01   1.3694E+01  0.000E+00  0.000E+00  0.000E+00  1.06736E+03  8.458E-01  1.200E+01  6.000E-02  1.282E+00
   1    6    6     2     3    1.3694E+01  2.3024E-01   1.3464E+01  0.000E+00  0.000E+00  0.000E+00  1.06263E+03  8.373E-01  1.200E+01  6.000E-02  1.279E+00
   1    7    6     2     4    1.3464E+01  2.2972E-01   1.3234E+01  0.000E+00  0.000E+00  0.000E+00  1.05790E+03  8.287E-01  1.200E+01  6.000E-02  1.276E+00
   1    8    6     2     5    1.3234E+01  2.2921E-01   1.3005E+01  0.000E+00  0.000E+00  0.000E+00  1.05318E+03  8.202E-01  1.200E+01  6.000E-02  1.273E+00
   1    3    5     3     1    2.0000E+00  2.8252E-01   1.7175E+00  0.000E+00  0.000E+00  0.000E+00  1.07555E+03  1.909E+00  9.636E+00  7.227E-02  1.955E+00
   1    3    6     3     2    1.7175E+00  2.4905E-01   1.4684E+00  0.000E+00  0.000E+00  0.000E+00  1.07264E+03  1.727E+00  8.909E+00  6.682E-02  1.864E+00
   1    3    7     3     3    1.4684E+00  1.9718E-01   1.2712E+00  0.000E+00  0.000E+00  0.000E+00  1.06987E+03  1.555E+00  8.218E+00  5.547E-02  1.777E+00
   1    4    8     3     4    1.2712E+00  2.2567E-01   1.0456E+00  0.000E+00  0.000E+00  0.000E+00  1.06682E+03  1.364E+00  7.455E+00  6.709E-02  1.682E+00
   1    5    8     3     5    1.0456E+00  1.5790E-01   8.8768E-01  0.000E+00  0.000E+00  0.000E+00  1.06362E+03  1.164E+00  6.655E+00  4.991E-02  1.582E+00
   1    6    8     3     6    8.8768E-01  5.5980E-02   8.3170E-01  0.000E+00  0.000E+00  0.000E+00  1.06158E+03  1.036E+00  6.145E+00  1.844E-02  1.518E+00
   1    5   10     4     1    1.0000E+01  9.0919E-02   9.9091E+00  0.000E+00  0.000E+00  0.000E+00  1.07836E+03  6.368E-01  1.000E+01  2.500E-02  1.212E+00
   1    5    9     4     2    9.9091E+00  1.8158E-01   9.7275E+00  0.000E+00  0.000E+00  0.000E+00  1.07154E+03  6.315E-01  1.000E+01  5.000E-02  1.211E+00
   1    6    8     4     3    9.7275E+00  1.2689E-01   9.6006E+00  0.000E+00  0.000E+00  0.000E+00  1.06381E+03  6.256E-01  1.000E+01  3.500E-02  1.209E+00
   1    6    8     5     1    1.0432E+01  2.2686E-01   1.0205E+01  0.000E+00  0.000E+00  0.000E+00  1.05868E+03  6.790E-01  1.542E+01  6.166E-02  1.226E+00
   1    7    7     5     2    1.0205E+01  2.7894E-01   9.9265E+00  0.000E+00  0.000E+00  0.000E+00  1.05417E+03  6.732E-01  1.519E+01  7.594E-02  1.224E+00
   1    8    7     5     3    9.9265E+00  1.9221E-01   9.7343E+00  0.000E+00  0.000E+00  0.000E+00  1.04992E+03  6.676E-01  1.497E+01  5.241E-02  1.223E+00
   1    8    6     5     4    9.7343E+00  1.3577E-01   9.5985E+00  0.000E+00  0.000E+00  0.000E+00  1.04691E+03  6.637E-01  1.482E+01  3.706E-02  1.221E+00
   1    9    6     6     1    2.2604E+01  2.4874E-01   2.2355E+01  0.000E+00  0.000E+00  0.000E+00  1.04387E+03  1.146E+00  1.200E+01  6.000E-02  1.382E+00
   1   10    7     6     2    2.2355E+01  2.4828E-01   2.2107E+01  0.000E+00  0.000E+00  0.000E+00  1.03932E+03  1.138E+00  1.200E+01  6.000E-02  1.379E+00
   1   11    7     6     3    2.2107E+01  2.4782E-01   2.1859E+01  0.000E+00  0.000E+00  0.000E+00  1.03477E+03  1.130E+00  1.200E+01  6.000E-02  1.377E+00
   1   12    7     6     4    2.1859E+01  2.4736E-01   2.1611E+01  0.000E+00  0.000E+00  0.000E+00  1.03021E+03  1.123E+00  1.200E+01  6.000E-02  1.374E+00
   1   13    7     6     5    2.1611E+01 -6.6424E-03   2.1618E+01  0.000E+00  0.000E+00  0.000E+00  1.02703E+03  1.119E+00  1.200E+01  2.400E-01 -9.225E-03
   1   14    9     7     1    1.5000E+02  1.3413E+00   1.4866E+02  0.000E+00  0.000E+00  0.000E+00  1.03987E+03  2.288E+00  5.529E+01  5.593E-01  7.994E-01
   1   13    8     7     2    1.4866E+02  1.8435E+00   1.4682E+02  0.000E+00  0.000E+00  0.000E+00  1.03478E+03  2.279E+00  5.526E+01  6.148E-01  9.996E-01
   1   13    7     7     3    1.4682E+02  1.4709E+00   1.4534E+02  0.000E+00  0.000E+00  0.000E+00  1.02969E+03  2.270E+00  5.522E+01  5.584E-01  8.780E-01
   1   13    6     8     1    1.6696E+02  9.0269E-01   1.6606E+02  0.000E+00  0.000E+00  0.000E+00  1.02480E+03  2.929E+00  4.248E+01  4.328E-01  6.952E-01
   1   13    5     8     2    1.6606E+02  1.5627E-01   1.6590E+02  0.000E+00  0.000E+00  0.000E+00  1.01855E+03  2.926E+00  4.242E+01  4.323E-01  1.205E-01
   1   13    4     8     3    1.6590E+02 -2.5089E+00   1.6841E+02  0.000E+00  0.000E+00  0.000E+00  1.01231E+03  2.934E+00  4.254E+01  4.335E+00 -1.929E-01
   1   13    3     8     4    1.6841E+02 -3.6765E+00   1.7209E+02  0.000E+00  0.000E+00  0.000E+00  1.00608E+03  2.954E+00  4.283E+01  4.365E+00 -2.808E-01
   1   13    2     8     5    1.7209E+02 -2.5835E+00   1.7467E+02  0.000E+00  0.000E+00  0.000E+00  9.99849E+02  2.974E+00  4.312E+01  4.395E+00 -1.960E-01
   1   13    1     8     6    1.7467E+02 -1.9880E+00   1.7666E+02  0.000E+00  0.000E+00  0.000E+00  9.94864E+02  2.989E+00  4.334E+01  2.650E+00 -2.501E-01
   1    8    6     9     1    0.0000E+00  0.0000E+00   0.0000E+00  0.000E+00  0.000E+00  0.000E+00  1.07875E+03  0.000E+00  4.000E+00  0.000E+00  1.000E+00
   1    8    5     9     2    0.0000E+00  0.0000E+00   0.0000E+00  0.000E+00  0.000E+00  0.000E+00  1.07825E+03  0.000E+00  4.000E+00  0.000E+00  1.000E+00





UNSATURATED ZONE PACKAGE VOLUMETRIC BUDGET FOR  TIME STEP    30 STRESS PERIOD   37
  ------------------------------------------------------------------------------



     CUMULATIVE VOLUMES      L**3       RATES FOR THIS TIME STEP      L**3/T
     ------------------                 ------------------------

           IN:                                      IN:
           ---                                      ---
        INFILTRATION =  1608349959.8816          INFILTRATION =           4.4075

          OUT:                                     OUT:
          ----                                     ----
              UZF ET =  1491559938.8706                UZF ET =           0.7250
        UZF RECHARGE =     1188922.5148          UZF RECHARGE =       0.0000E+00

            IN - OUT =   115601098.4961              IN - OUT =           3.6825

          STORAGE:                                 STORAGE:
          --------                                 --------
      STORAGE CHANGE =   115602065.8063        STORAGE CHANGE =           3.6825

 PERCENT DISCREPANCY IS DIFFERENCE BETWEEN IN-OUT MINUS CHANGE IN STORAGE
 DIVIDED BY THE AVERAGE OF IN AND OUT TIMES 100

 PERCENT DISCREPANCY =          -0.00     PERCENT DISCREPANCY =           0.00






1
  VOLUMETRIC BUDGET FOR AGRICULTURAL FIELDS AT TIME STEP   30, STRESS PERIOD  37
  ------------------------------------------------------------------------------

     CUMULATIVE VOLUMES      L**3       RATES FOR THIS TIME STEP      L**3/T
     ------------------                 ------------------------

           IN:                                      IN:
           ---                                      ---
               AG WELLS  =   218905344.0000                 AG WELLS  =           0.0000
      DIVERSION SEGMENTS =   972051904.0000        DIVERSION SEGMENTS =           0.0000
           GW IRRIGATION =           0.0000             GW IRRIGATION =           0.0000
           SW IRRIGATION =           0.0000             SW IRRIGATION =           0.0000
        SYSTEM LOSSES GW =           0.0000          SYSTEM LOSSES GW =           0.0000
        SYSTEM LOSSES SW =           0.0000          SYSTEM LOSSES SW =           0.0000

                TOTAL IN =  1190957312.0000                  TOTAL IN =           0.0000

          OUT:                                     OUT:
          ----                                     ----
               AG WELLS  =           0.0000                 AG WELLS  =           0.0000
      DIVERSION SEGMENTS =           0.0000        DIVERSION SEGMENTS =           0.0000
           GW IRRIGATION =   218905344.0000             GW IRRIGATION =           0.0000
           SW IRRIGATION =   972071424.0000             SW IRRIGATION =           0.0000
        SYSTEM LOSSES GW =           0.0000          SYSTEM LOSSES GW =           0.0000
        SYSTEM LOSSES SW =           0.0000          SYSTEM LOSSES SW =           0.0000

               TOTAL OUT =  1190976768.0000                 TOTAL OUT =           0.0000

                IN - OUT =      -19456.0000                  IN - OUT =           0.0000

     PERCENT DISCREPANCY =          -0.00         PERCENT DISCREPANCY =           0.00



1
  VOLUMETRIC BUDGET FOR ENTIRE MODEL AT END OF TIME STEP   30, STRESS PERIOD  37
  ------------------------------------------------------------------------------

     CUMULATIVE VOLUMES      L**3       RATES FOR THIS TIME STEP      L**3/T
     ------------------                 ------------------------

           IN:                                      IN:
           ---                                      ---
             STORAGE     =   372258272.0000               STORAGE     =           1.1063
       CONSTANT HEAD     =           0.0000         CONSTANT HEAD     =           0.0000
     HEAD DEP BOUNDS     =    27087372.0000       HEAD DEP BOUNDS     =           0.2861
      STREAM LEAKAGE     =  1129822592.0000        STREAM LEAKAGE     =          11.3529
        UZF RECHARGE     =     1188922.5000          UZF RECHARGE     =           0.0000
               GW ET     =           0.0000                 GW ET     =           0.0000
     SURFACE LEAKAGE     =           0.0000       SURFACE LEAKAGE     =           0.0000
           AG WELLS      =           0.0000             AG WELLS      =           0.0000

                TOTAL IN =  1530357120.0000                  TOTAL IN =          12.7453

          OUT:                                     OUT:
          ----                                     ----
             STORAGE     =   254583168.0000               STORAGE     =           1.6925
       CONSTANT HEAD     =           0.0000         CONSTANT HEAD     =           0.0000
     HEAD DEP BOUNDS     =    27545220.0000       HEAD DEP BOUNDS     =           0.2893
      STREAM LEAKAGE     =  1025981184.0000        STREAM LEAKAGE     =          10.7636
        UZF RECHARGE     =           0.0000          UZF RECHARGE     =           0.0000
               GW ET     =     3295915.0000                 GW ET     =           0.0000
     SURFACE LEAKAGE     =           0.0000       SURFACE LEAKAGE     =           0.0000
           AG WELLS      =   218905344.0000             AG WELLS      =           0.0000

               TOTAL OUT =  1530310784.0000                 TOTAL OUT =          12.7454

                IN - OUT =       46336.0000                  IN - OUT =      -1.6403E-04

     PERCENT DISCREPANCY =           0.00         PERCENT DISCREPANCY =          -0.00






         TIME SUMMARY AT END OF TIME STEP   30 IN STRESS PERIOD   37
                    SECONDS     MINUTES      HOURS       DAYS        YEARS
                    -----------------------------------------------------------
   TIME STEP LENGTH  87667.      1461.1      24.352      1.0147     2.77799E-03
 STRESS PERIOD TIME 2.63000E+06  43833.      730.56      30.440     8.33397E-02
         TOTAL TIME 9.47660E+07 1.57943E+06  26324.      1096.8      3.0030    
1
1
                            STRESS PERIOD NO.   38, LENGTH =   2630000.    
                            -----------------------------------------------

                              NUMBER OF TIME STEPS =    30

                               MULTIPLIER FOR DELT =     1.000

                            INITIAL TIME STEP SIZE =   87666.66    

 REUSING NON-PARAMETER GHB CELLS FROM LAST STRESS PERIOD

      2 GHB CELLS

 REUSING STREAM SEGMENT DATA FROM LAST STRESS PERIOD



            AREAL INFILTRATION RATE
 READING ON UNIT   19 WITH FORMAT: (10F4.0)            

            1           2           3           4           5           6           7           8           9          10
 ........................................................................................................................
   1   1.2000E-09   0.000       0.000       0.000       0.000       0.000       0.000       0.000       0.000       0.000    
   2   2.1000E-09  2.0000E-09  8.0000E-10  8.5000E-09   0.000       0.000       0.000       0.000       0.000       0.000    
   3   5.0000E-10  1.1000E-09  8.8000E-09  5.5000E-09   0.000       0.000       0.000       0.000       0.000       0.000    
   4   8.5000E-09  1.1000E-09  1.1000E-09  1.1000E-09  2.0000E-09   0.000       0.000       0.000       0.000       0.000    
   5   8.5000E-09  1.1000E-09  1.1000E-09  1.1000E-09  1.1000E-09   0.000       0.000       0.000       0.000       0.000    
   6   8.5000E-09  5.2000E-09  2.1000E-09  1.1000E-09  1.5000E-09   0.000       0.000       0.000       0.000       0.000    
   7   8.5000E-09  5.2000E-09  2.1000E-09  1.2000E-09  2.0000E-09   0.000       0.000       0.000       0.000       0.000    
   8   5.0000E-10  5.2000E-09  2.1000E-09  1.2000E-09  5.0000E-09   0.000       0.000       0.000       0.000       0.000    
   9   5.0000E-10  5.2000E-09  2.1000E-09  1.2000E-09  5.0000E-09   0.000       0.000       0.000       0.000       0.000    
  10   5.0000E-10  5.2000E-09  2.1000E-09  1.2000E-09  5.8000E-09   0.000       0.000       0.000       0.000       0.000    
  11   1.0000E-10  1.1000E-09  1.1000E-09  1.2000E-09  5.0000E-09   0.000       0.000       0.000       0.000       0.000    
  12   1.1000E-09  1.1000E-09  1.1000E-09  1.1000E-09  2.0000E-09   0.000       0.000       0.000       0.000       0.000    
  13   1.1000E-09  2.2000E-09  2.2000E-09  2.1000E-09  1.0000E-09   0.000       0.000       0.000       0.000       0.000    
  14   2.0000E-10  5.5000E-09  5.5000E-09  5.2000E-09  1.0000E-09   0.000       0.000       0.000       0.000       0.000    
  15    0.000      8.8000E-09  8.8000E-09   0.000       0.000       0.000       0.000       0.000       0.000       0.000    

                  ET RATE =  5.000000E-10

 USING ET EXTINCTION DEPTH FROM PREVIOUS STRESS PERIOD. CURRENT PERIOD IS:      38

 USING EXTINCTION WATER CONTENT FROM PREVIOUS STRESS PERIOD. CURRENT PERIOD IS:      38

 USING AIR ENTRY PRESSURE FROM PREVIOUS STRESS PERIOD. CURRENT PERIOD IS:      38

 USING ROOT PRESSURE HEAD FROM PREVIOUS STRESS PERIOD. CURRENT PERIOD IS:      38

 USING ROOT ACTIVITY FROM PREVIOUS STRESS PERIOD. CURRENT PERIOD IS:      38

 PROCESSING AG STRESS PERIOD DATA

 READING AG STRESS PERIOD DATA

 READING IRRIGATION SEGMENT

 READING IRRIGATION WELL

 READING SUPPLEMENTAL WELL

 END PROCESSING AG STRESS PERIOD DATA OPTIONS
 
 SOLVING FOR HEAD 
                                                   Max.-Head-Change                         Max.-Flux-Residual
  Residual-Control   Outer-Iter.   Inner-Iter.     Column Row Layer    Maximum-Head-Change  Column Row Layer    Maximum-Flux-Residual          L2-NORM 
          0                 1           2             4    7     1       0.3312787751E-02       4    7    1         0.1738220410E+00      0.4375338328E+00
          0                 2           2             4    7     1      -0.3222441477E-03       4    7    1        -0.1738222011E-01      0.4375122159E-01
          0                 3           1             4    7     1       0.2194363029E-04       4    7    1         0.1216755770E-02      0.3062413868E-02

    ------------------------------------------------
       NWT REQUIRED            3 OUTER ITERATIONS 
       AND A TOTAL OF          5 INNER ITERATIONS.
    ------------------------------------------------

 NO OUTPUT CONTROL FOR STRESS PERIOD   38   TIME STEP    1
 
 SOLVING FOR HEAD 
                                                   Max.-Head-Change                         Max.-Flux-Residual
  Residual-Control   Outer-Iter.   Inner-Iter.     Column Row Layer    Maximum-Head-Change  Column Row Layer    Maximum-Flux-Residual          L2-NORM 
          0                 1           2             4    7     1       0.3280815723E-02       4    7    1         0.1721350041E+00      0.4446789415E+00
          0                 2           2             4    7     1      -0.3191341355E-03       4    7    1        -0.1721351604E-01      0.4443794585E-01
          0                 3           1             4    7     1       0.2173184960E-04       4    7    1         0.1204946483E-02      0.3107903768E-02

    ------------------------------------------------
       NWT REQUIRED            3 OUTER ITERATIONS 
       AND A TOTAL OF          5 INNER ITERATIONS.
    ------------------------------------------------

 NO OUTPUT CONTROL FOR STRESS PERIOD   38   TIME STEP    2
 
 SOLVING FOR HEAD 
                                                   Max.-Head-Change                         Max.-Flux-Residual
  Residual-Control   Outer-Iter.   Inner-Iter.     Column Row Layer    Maximum-Head-Change  Column Row Layer    Maximum-Flux-Residual          L2-NORM 
          0                 1           2             4    7     1       0.3249106677E-02       4    7    1         0.1704624926E+00      0.4608104918E+00
          0                 2           2             4    7     1      -0.3160497047E-03       4    7    1        -0.1704626452E-01      0.4599143543E-01
          0                 3           1             4    7     1       0.2152181131E-04       4    7    1         0.1193238883E-02      0.3211688071E-02

    ------------------------------------------------
       NWT REQUIRED            3 OUTER ITERATIONS 
       AND A TOTAL OF          5 INNER ITERATIONS.
    ------------------------------------------------

 NO OUTPUT CONTROL FOR STRESS PERIOD   38   TIME STEP    3
 
 SOLVING FOR HEAD 
                                                   Max.-Head-Change                         Max.-Flux-Residual
  Residual-Control   Outer-Iter.   Inner-Iter.     Column Row Layer    Maximum-Head-Change  Column Row Layer    Maximum-Flux-Residual          L2-NORM 
          0                 1           2             4    7     1       0.3217930571E-02       4    7    1         0.1688184117E+00      0.4555742975E+00
          0                 2           2             4    7     1      -0.3130171146E-03       4    7    1        -0.1688185608E-01      0.4547917684E-01
          0                 3           1             4    7     1       0.2131530346E-04       4    7    1         0.1181730303E-02      0.3176422071E-02

    ------------------------------------------------
       NWT REQUIRED            3 OUTER ITERATIONS 
       AND A TOTAL OF          5 INNER ITERATIONS.
    ------------------------------------------------

 NO OUTPUT CONTROL FOR STRESS PERIOD   38   TIME STEP    4
 
 SOLVING FOR HEAD 
                                                   Max.-Head-Change                         Max.-Flux-Residual
  Residual-Control   Outer-Iter.   Inner-Iter.     Column Row Layer    Maximum-Head-Change  Column Row Layer    Maximum-Flux-Residual          L2-NORM 
          0                 1           2             4    7     1       0.3187276361E-02       4    7    1         0.1672019631E+00      0.4506680660E+00
          0                 2           2             4    7     1      -0.3100352906E-03       4    7    1        -0.1672021087E-01      0.4499851960E-01
          0                 3           1             4    7     1       0.2111225247E-04       4    7    1         0.1170415125E-02      0.3143775546E-02

    ------------------------------------------------
       NWT REQUIRED            3 OUTER ITERATIONS 
       AND A TOTAL OF          5 INNER ITERATIONS.
    ------------------------------------------------

 NO OUTPUT CONTROL FOR STRESS PERIOD   38   TIME STEP    5
 
 SOLVING FOR HEAD 
                                                   Max.-Head-Change                         Max.-Flux-Residual
  Residual-Control   Outer-Iter.   Inner-Iter.     Column Row Layer    Maximum-Head-Change  Column Row Layer    Maximum-Flux-Residual          L2-NORM 
          0                 1           2             4    7     1       0.3157137282E-02       4    7    1         0.1656125743E+00      0.4460567524E+00
          0                 2           2             4    7     1      -0.3071035753E-03       4    7    1        -0.1656127166E-01      0.4454529624E-01
          0                 3           1             4    7     1       0.2091261359E-04       4    7    1         0.1159289394E-02      0.3112692775E-02

    ------------------------------------------------
       NWT REQUIRED            3 OUTER ITERATIONS 
       AND A TOTAL OF          5 INNER ITERATIONS.
    ------------------------------------------------

 NO OUTPUT CONTROL FOR STRESS PERIOD   38   TIME STEP    6
 
 SOLVING FOR HEAD 
                                                   Max.-Head-Change                         Max.-Flux-Residual
  Residual-Control   Outer-Iter.   Inner-Iter.     Column Row Layer    Maximum-Head-Change  Column Row Layer    Maximum-Flux-Residual          L2-NORM 
          0                 1           2             4    7     1       0.3127224241E-02       4    7    1         0.1640350986E+00      0.4416917567E+00
          0                 2           2             4    7     1      -0.3041938471E-03       4    7    1        -0.1640352376E-01      0.4411628109E-01
          0                 3           1             4    7     1       0.2071447144E-04       4    7    1         0.1148247015E-02      0.3083551131E-02

    ------------------------------------------------
       NWT REQUIRED            3 OUTER ITERATIONS 
       AND A TOTAL OF          5 INNER ITERATIONS.
    ------------------------------------------------

 NO OUTPUT CONTROL FOR STRESS PERIOD   38   TIME STEP    7
 
 SOLVING FOR HEAD 
                                                   Max.-Head-Change                         Max.-Flux-Residual
  Residual-Control   Outer-Iter.   Inner-Iter.     Column Row Layer    Maximum-Head-Change  Column Row Layer    Maximum-Flux-Residual          L2-NORM 
          0                 1           2             4    7     1       0.3098087914E-02       4    7    1         0.1624989346E+00      0.4375503117E+00
          0                 2           2             4    7     1      -0.3013596722E-03       4    7    1        -0.1624990702E-01      0.4370851299E-01
          0                 3           1             4    7     1       0.2052147528E-04       4    7    1         0.1137493860E-02      0.3055385436E-02

    ------------------------------------------------
       NWT REQUIRED            3 OUTER ITERATIONS 
       AND A TOTAL OF          5 INNER ITERATIONS.
    ------------------------------------------------

 NO OUTPUT CONTROL FOR STRESS PERIOD   38   TIME STEP    8
 
 SOLVING FOR HEAD 
                                                   Max.-Head-Change                         Max.-Flux-Residual
  Residual-Control   Outer-Iter.   Inner-Iter.     Column Row Layer    Maximum-Head-Change  Column Row Layer    Maximum-Flux-Residual          L2-NORM 
          0                 1           2             4    7     1       0.3069159249E-02       4    7    1         0.1609734502E+00      0.4336049510E+00
          0                 2           2             4    7     1      -0.2985456978E-03       4    7    1        -0.1609735831E-01      0.4331930489E-01
          0                 3           1             4    7     1       0.2032985371E-04       4    7    1         0.1126815436E-02      0.3028612995E-02

    ------------------------------------------------
       NWT REQUIRED            3 OUTER ITERATIONS 
       AND A TOTAL OF          5 INNER ITERATIONS.
    ------------------------------------------------

 NO OUTPUT CONTROL FOR STRESS PERIOD   38   TIME STEP    9
 
 SOLVING FOR HEAD 
                                                   Max.-Head-Change                         Max.-Flux-Residual
  Residual-Control   Outer-Iter.   Inner-Iter.     Column Row Layer    Maximum-Head-Change  Column Row Layer    Maximum-Flux-Residual          L2-NORM 
          0                 1           2             4    7     1       0.3040708432E-02       4    7    1         0.1594735290E+00      0.4298195165E+00
          0                 2           2             4    7     1      -0.2957782046E-03       4    7    1        -0.1594736589E-01      0.4294597319E-01
          0                 3           1             4    7     1       0.2014139788E-04       4    7    1         0.1116315970E-02      0.3002915424E-02

    ------------------------------------------------
       NWT REQUIRED            3 OUTER ITERATIONS 
       AND A TOTAL OF          5 INNER ITERATIONS.
    ------------------------------------------------

 NO OUTPUT CONTROL FOR STRESS PERIOD   38   TIME STEP   10
 
 SOLVING FOR HEAD 
                                                   Max.-Head-Change                         Max.-Flux-Residual
  Residual-Control   Outer-Iter.   Inner-Iter.     Column Row Layer    Maximum-Head-Change  Column Row Layer    Maximum-Flux-Residual          L2-NORM 
          0                 1           2             4    7     1       0.3012452736E-02       4    7    1         0.1579835873E+00      0.4261872939E+00
          0                 2           2             4    7     1      -0.2930296916E-03       4    7    1        -0.1579837142E-01      0.4258682741E-01
          0                 3           1             4    7     1       0.1995423429E-04       4    7    1         0.1105886361E-02      0.2977987474E-02

    ------------------------------------------------
       NWT REQUIRED            3 OUTER ITERATIONS 
       AND A TOTAL OF          5 INNER ITERATIONS.
    ------------------------------------------------

 NO OUTPUT CONTROL FOR STRESS PERIOD   38   TIME STEP   11
 
 SOLVING FOR HEAD 
                                                   Max.-Head-Change                         Max.-Flux-Residual
  Residual-Control   Outer-Iter.   Inner-Iter.     Column Row Layer    Maximum-Head-Change  Column Row Layer    Maximum-Flux-Residual          L2-NORM 
          0                 1           2             4    7     1       0.2984944678E-02       4    7    1         0.1565333552E+00      0.4227046237E+00
          0                 2           2             4    7     1      -0.2903539031E-03       4    7    1        -0.1565334792E-01      0.4224233322E-01
          0                 3           1             4    7     1       0.1977202285E-04       4    7    1         0.1095734706E-02      0.2954432072E-02

    ------------------------------------------------
       NWT REQUIRED            3 OUTER ITERATIONS 
       AND A TOTAL OF          5 INNER ITERATIONS.
    ------------------------------------------------

 NO OUTPUT CONTROL FOR STRESS PERIOD   38   TIME STEP   12
 
 SOLVING FOR HEAD 
                                                   Max.-Head-Change                         Max.-Flux-Residual
  Residual-Control   Outer-Iter.   Inner-Iter.     Column Row Layer    Maximum-Head-Change  Column Row Layer    Maximum-Flux-Residual          L2-NORM 
          0                 1           2             4    7     1       0.2957610526E-02       4    7    1         0.1550922945E+00      0.4193274997E+00
          0                 2           2             4    7     1      -0.2876950317E-03       4    7    1        -0.1550924157E-01      0.4190795513E-01
          0                 3           1             4    7     1       0.1959096425E-04       4    7    1         0.1085647281E-02      0.2931444544E-02

    ------------------------------------------------
       NWT REQUIRED            3 OUTER ITERATIONS 
       AND A TOTAL OF          5 INNER ITERATIONS.
    ------------------------------------------------

 NO OUTPUT CONTROL FOR STRESS PERIOD   38   TIME STEP   13
 
 SOLVING FOR HEAD 
                                                   Max.-Head-Change                         Max.-Flux-Residual
  Residual-Control   Outer-Iter.   Inner-Iter.     Column Row Layer    Maximum-Head-Change  Column Row Layer    Maximum-Flux-Residual          L2-NORM 
          0                 1           2             4    7     1       0.2930728570E-02       4    7    1         0.1536750470E+00      0.4160650427E+00
          0                 2           2             4    7     1      -0.2850801462E-03       4    7    1        -0.1536751654E-01      0.4158426631E-01
          0                 3           1             4    7     1       0.1941289980E-04       4    7    1         0.1075726523E-02      0.2908711979E-02

    ------------------------------------------------
       NWT REQUIRED            3 OUTER ITERATIONS 
       AND A TOTAL OF          5 INNER ITERATIONS.
    ------------------------------------------------

 NO OUTPUT CONTROL FOR STRESS PERIOD   38   TIME STEP   14
 
 SOLVING FOR HEAD 
                                                   Max.-Head-Change                         Max.-Flux-Residual
  Residual-Control   Outer-Iter.   Inner-Iter.     Column Row Layer    Maximum-Head-Change  Column Row Layer    Maximum-Flux-Residual          L2-NORM 
          0                 1           2             4    7     1       0.2904288557E-02       4    7    1         0.1522812454E+00      0.4129063244E+00
          0                 2           2             4    7     1      -0.2825082500E-03       4    7    1        -0.1522813612E-01      0.4127058683E-01
          0                 3           1             4    7     1       0.1923776324E-04       4    7    1         0.1065969867E-02      0.2887134099E-02

    ------------------------------------------------
       NWT REQUIRED            3 OUTER ITERATIONS 
       AND A TOTAL OF          5 INNER ITERATIONS.
    ------------------------------------------------

 NO OUTPUT CONTROL FOR STRESS PERIOD   38   TIME STEP   15
 
 SOLVING FOR HEAD 
                                                   Max.-Head-Change                         Max.-Flux-Residual
  Residual-Control   Outer-Iter.   Inner-Iter.     Column Row Layer    Maximum-Head-Change  Column Row Layer    Maximum-Flux-Residual          L2-NORM 
          0                 1           2             4    7     1       0.2878282111E-02       4    7    1         0.1509103581E+00      0.4098417106E+00
          0                 2           2             4    7     1      -0.2799785284E-03       4    7    1        -0.1509104715E-01      0.4096670436E-01
          0                 3           1             4    7     1       0.1906549847E-04       4    7    1         0.1056373638E-02      0.2865959828E-02

    ------------------------------------------------
       NWT REQUIRED            3 OUTER ITERATIONS 
       AND A TOTAL OF          5 INNER ITERATIONS.
    ------------------------------------------------

 NO OUTPUT CONTROL FOR STRESS PERIOD   38   TIME STEP   16
 
 SOLVING FOR HEAD 
                                                   Max.-Head-Change                         Max.-Flux-Residual
  Residual-Control   Outer-Iter.   Inner-Iter.     Column Row Layer    Maximum-Head-Change  Column Row Layer    Maximum-Flux-Residual          L2-NORM 
          0                 1           2             4    7     1       0.2852421827E-02       4    7    1         0.1495471538E+00      0.4068444055E+00
          0                 2           2             4    7     1      -0.2774630245E-03       4    7    1        -0.1495472649E-01      0.4066876942E-01
          0                 3           1             4    7     1       0.1889420192E-04       4    7    1         0.1046831197E-02      0.2845549939E-02

    ------------------------------------------------
       NWT REQUIRED            3 OUTER ITERATIONS 
       AND A TOTAL OF          5 INNER ITERATIONS.
    ------------------------------------------------

 NO OUTPUT CONTROL FOR STRESS PERIOD   38   TIME STEP   17
 
 SOLVING FOR HEAD 
                                                   Max.-Head-Change                         Max.-Flux-Residual
  Residual-Control   Outer-Iter.   Inner-Iter.     Column Row Layer    Maximum-Head-Change  Column Row Layer    Maximum-Flux-Residual          L2-NORM 
          0                 1           2             4    7     1       0.2826986951E-02       4    7    1         0.1482063247E+00      0.4039304014E+00
          0                 2           2             4    7     1      -0.2749889009E-03       4    7    1        -0.1482064332E-01      0.4037896340E-01
          0                 3           1             4    7     1       0.1872572345E-04       4    7    1         0.1037445373E-02      0.2825067102E-02

    ------------------------------------------------
       NWT REQUIRED            3 OUTER ITERATIONS 
       AND A TOTAL OF          5 INNER ITERATIONS.
    ------------------------------------------------

 NO OUTPUT CONTROL FOR STRESS PERIOD   38   TIME STEP   18
 
 SOLVING FOR HEAD 
                                                   Max.-Head-Change                         Max.-Flux-Residual
  Residual-Control   Outer-Iter.   Inner-Iter.     Column Row Layer    Maximum-Head-Change  Column Row Layer    Maximum-Flux-Residual          L2-NORM 
          0                 1           2             4    7     1       0.2801967089E-02       4    7    1         0.1468875527E+00      0.4010822993E+00
          0                 2           2             4    7     1      -0.2725551471E-03       4    7    1        -0.1468876587E-01      0.4009567651E-01
          0                 3           1             4    7     1       0.1855999418E-04       4    7    1         0.1028213967E-02      0.2805436628E-02

    ------------------------------------------------
       NWT REQUIRED            3 OUTER ITERATIONS 
       AND A TOTAL OF          5 INNER ITERATIONS.
    ------------------------------------------------

 NO OUTPUT CONTROL FOR STRESS PERIOD   38   TIME STEP   19
 
 SOLVING FOR HEAD 
                                                   Max.-Head-Change                         Max.-Flux-Residual
  Residual-Control   Outer-Iter.   Inner-Iter.     Column Row Layer    Maximum-Head-Change  Column Row Layer    Maximum-Flux-Residual          L2-NORM 
          0                 1           2             4    7     1       0.2777348114E-02       4    7    1         0.1455902986E+00      0.3982954313E+00
          0                 2           2             4    7     1      -0.2701603888E-03       4    7    1        -0.1455904024E-01      0.3981829481E-01
          0                 3           1             4    7     1       0.1839692014E-04       4    7    1         0.1019133162E-02      0.2786213172E-02

    ------------------------------------------------
       NWT REQUIRED            3 OUTER ITERATIONS 
       AND A TOTAL OF          5 INNER ITERATIONS.
    ------------------------------------------------

 NO OUTPUT CONTROL FOR STRESS PERIOD   38   TIME STEP   20
 
 SOLVING FOR HEAD 
                                                   Max.-Head-Change                         Max.-Flux-Residual
  Residual-Control   Outer-Iter.   Inner-Iter.     Column Row Layer    Maximum-Head-Change  Column Row Layer    Maximum-Flux-Residual          L2-NORM 
          0                 1           2             4    7     1       0.2753125043E-02       4    7    1         0.1443138300E+00      0.3955742619E+00
          0                 2           2             4    7     1      -0.2678041408E-03       4    7    1        -0.1443139315E-01      0.3954728627E-01
          0                 3           1             4    7     1       0.1823646797E-04       4    7    1         0.1010197846E-02      0.2767406319E-02

    ------------------------------------------------
       NWT REQUIRED            3 OUTER ITERATIONS 
       AND A TOTAL OF          5 INNER ITERATIONS.
    ------------------------------------------------

 NO OUTPUT CONTROL FOR STRESS PERIOD   38   TIME STEP   21
 
 SOLVING FOR HEAD 
                                                   Max.-Head-Change                         Max.-Flux-Residual
  Residual-Control   Outer-Iter.   Inner-Iter.     Column Row Layer    Maximum-Head-Change  Column Row Layer    Maximum-Flux-Residual          L2-NORM 
          0                 1           2             4    7     1       0.2729023407E-02       4    7    1         0.1430430913E+00      0.3929109945E+00
          0                 2           2             4    7     1      -0.2654597058E-03       4    7    1        -0.1430431906E-01      0.3928211543E-01
          0                 3           1             4    7     1       0.1807682096E-04       4    7    1         0.1001302673E-02      0.2748895309E-02

    ------------------------------------------------
       NWT REQUIRED            3 OUTER ITERATIONS 
       AND A TOTAL OF          5 INNER ITERATIONS.
    ------------------------------------------------

 NO OUTPUT CONTROL FOR STRESS PERIOD   38   TIME STEP   22
 
 SOLVING FOR HEAD 
                                                   Max.-Head-Change                         Max.-Flux-Residual
  Residual-Control   Outer-Iter.   Inner-Iter.     Column Row Layer    Maximum-Head-Change  Column Row Layer    Maximum-Flux-Residual          L2-NORM 
          0                 1           2             4    7     1       0.2705577618E-02       4    7    1         0.1418082438E+00      0.3902891558E+00
          0                 2           2             4    7     1      -0.2631790671E-03       4    7    1        -0.1418083410E-01      0.3902080101E-01
          0                 3           1             4    7     1       0.1792151785E-04       4    7    1         0.9926587354E-03      0.2730826279E-02

    ------------------------------------------------
       NWT REQUIRED            3 OUTER ITERATIONS 
       AND A TOTAL OF          5 INNER ITERATIONS.
    ------------------------------------------------

 NO OUTPUT CONTROL FOR STRESS PERIOD   38   TIME STEP   23
 
 SOLVING FOR HEAD 
                                                   Max.-Head-Change                         Max.-Flux-Residual
  Residual-Control   Outer-Iter.   Inner-Iter.     Column Row Layer    Maximum-Head-Change  Column Row Layer    Maximum-Flux-Residual          L2-NORM 
          0                 1           2             4    7     1       0.2682234571E-02       4    7    1         0.1405778061E+00      0.3877286275E+00
          0                 2           2             4    7     1      -0.2609084219E-03       4    7    1        -0.1405779011E-01      0.3876547757E-01
          0                 3           1             4    7     1       0.1776689565E-04       4    7    1         0.9840456532E-03      0.2712883994E-02

    ------------------------------------------------
       NWT REQUIRED            3 OUTER ITERATIONS 
       AND A TOTAL OF          5 INNER ITERATIONS.
    ------------------------------------------------

 NO OUTPUT CONTROL FOR STRESS PERIOD   38   TIME STEP   24
 
 SOLVING FOR HEAD 
                                                   Max.-Head-Change                         Max.-Flux-Residual
  Residual-Control   Outer-Iter.   Inner-Iter.     Column Row Layer    Maximum-Head-Change  Column Row Layer    Maximum-Flux-Residual          L2-NORM 
          0                 1           2             4    7     1       0.2659261374E-02       4    7    1         0.1393674931E+00      0.3852043083E+00
          0                 2           2             4    7     1      -0.2586737536E-03       4    7    1        -0.1393675864E-01      0.3851237486E-01
          0                 3           1             4    7     1       0.1761472279E-04       4    7    1         0.9755734470E-03      0.2695227092E-02

    ------------------------------------------------
       NWT REQUIRED            3 OUTER ITERATIONS 
       AND A TOTAL OF          5 INNER ITERATIONS.
    ------------------------------------------------

 NO OUTPUT CONTROL FOR STRESS PERIOD   38   TIME STEP   25
 
 SOLVING FOR HEAD 
                                                   Max.-Head-Change                         Max.-Flux-Residual
  Residual-Control   Outer-Iter.   Inner-Iter.     Column Row Layer    Maximum-Head-Change  Column Row Layer    Maximum-Flux-Residual          L2-NORM 
          0                 1           2             4    7     1       0.2636654323E-02       4    7    1         0.1381763562E+00      0.3827299575E+00
          0                 2           2             4    7     1      -0.2564747011E-03       4    7    1        -0.1381764475E-01      0.3826692707E-01
          0                 3           1             4    7     1       0.1746497535E-04       4    7    1         0.9672354699E-03      0.2678166667E-02

    ------------------------------------------------
       NWT REQUIRED            3 OUTER ITERATIONS 
       AND A TOTAL OF          5 INNER ITERATIONS.
    ------------------------------------------------

 NO OUTPUT CONTROL FOR STRESS PERIOD   38   TIME STEP   26
 
 SOLVING FOR HEAD 
                                                   Max.-Head-Change                         Max.-Flux-Residual
  Residual-Control   Outer-Iter.   Inner-Iter.     Column Row Layer    Maximum-Head-Change  Column Row Layer    Maximum-Flux-Residual          L2-NORM 
          0                 1           2             4    7     1       0.2614135602E-02       4    7    1         0.1369894060E+00      0.3802958230E+00
          0                 2           2             4    7     1      -0.2542842407E-03       4    7    1        -0.1369894952E-01      0.3802405110E-01
          0                 3           1             4    7     1       0.1731581344E-04       4    7    1         0.9589268147E-03      0.2661525923E-02

    ------------------------------------------------
       NWT REQUIRED            3 OUTER ITERATIONS 
       AND A TOTAL OF          5 INNER ITERATIONS.
    ------------------------------------------------

 NO OUTPUT CONTROL FOR STRESS PERIOD   38   TIME STEP   27
 
 SOLVING FOR HEAD 
                                                   Max.-Head-Change                         Max.-Flux-Residual
  Residual-Control   Outer-Iter.   Inner-Iter.     Column Row Layer    Maximum-Head-Change  Column Row Layer    Maximum-Flux-Residual          L2-NORM 
          0                 1           2             4    7     1       0.2592243330E-02       4    7    1         0.1358366313E+00      0.3778962846E+00
          0                 2           2             4    7     1      -0.2521547170E-03       4    7    1        -0.1358367189E-01      0.3778463180E-01
          0                 3           1             4    7     1       0.1717080041E-04       4    7    1         0.9508573592E-03      0.2644592502E-02

    ------------------------------------------------
       NWT REQUIRED            3 OUTER ITERATIONS 
       AND A TOTAL OF          5 INNER ITERATIONS.
    ------------------------------------------------

 NO OUTPUT CONTROL FOR STRESS PERIOD   38   TIME STEP   28
 
 SOLVING FOR HEAD 
                                                   Max.-Head-Change                         Max.-Flux-Residual
  Residual-Control   Outer-Iter.   Inner-Iter.     Column Row Layer    Maximum-Head-Change  Column Row Layer    Maximum-Flux-Residual          L2-NORM 
          0                 1           2             4    7     1       0.2570420842E-02       4    7    1         0.1346867412E+00      0.3755309619E+00
          0                 2           2             4    7     1      -0.2500319813E-03       4    7    1        -0.1346868269E-01      0.3754848692E-01
          0                 3           1             4    7     1       0.1702625008E-04       4    7    1         0.9428081205E-03      0.2628003365E-02

    ------------------------------------------------
       NWT REQUIRED            3 OUTER ITERATIONS 
       AND A TOTAL OF          5 INNER ITERATIONS.
    ------------------------------------------------

 NO OUTPUT CONTROL FOR STRESS PERIOD   38   TIME STEP   29
 
 SOLVING FOR HEAD 
                                                   Max.-Head-Change                         Max.-Flux-Residual
  Residual-Control   Outer-Iter.   Inner-Iter.     Column Row Layer    Maximum-Head-Change  Column Row Layer    Maximum-Flux-Residual          L2-NORM 
          0                 1           2             4    7     1       0.2548944169E-02       4    7    1         0.1335552675E+00      0.3732106348E+00
          0                 2           2             4    7     1      -0.2479428838E-03       4    7    1        -0.1335553515E-01      0.3731694406E-01
          0                 3           1             4    7     1       0.1688399004E-04       4    7    1         0.9348877743E-03      0.2611824839E-02

    ------------------------------------------------
       NWT REQUIRED            3 OUTER ITERATIONS 
       AND A TOTAL OF          5 INNER ITERATIONS.
    ------------------------------------------------

 NO OUTPUT CONTROL FOR STRESS PERIOD   38   TIME STEP   30



 STREAM LISTING     PERIOD     38   STEP       30

 LAYER ROW COL. STREAM  RCH.  FLOW INTO     FLOW TO   FLOW OUT OF   OVRLND.     DIRECT     STREAM       STREAM     STREAM     STREAM   STREAMBED  STREAMBED
                SEG.NO.  NO.  STRM. RCH.    AQUIFER    STRM. RCH.    RUNOFF     PRECIP       ET          HEAD       DEPTH      WIDTH   CONDCTNC.   GRADIENT

   1    1    1     1     1    1.4250E+01  1.8168E-01   1.4068E+01  0.000E+00  0.000E+00  0.000E+00  1.09404E+03  9.953E-01  1.011E+01  4.547E-02  1.332E+00
   1    2    2     1     2    1.4068E+01  2.7999E-01   1.3788E+01  0.000E+00  0.000E+00  0.000E+00  1.08905E+03  9.906E-01  1.002E+01  7.016E-02  1.330E+00
   1    3    3     1     3    1.3788E+01  2.3744E-01   1.3550E+01  0.000E+00  0.000E+00  0.000E+00  1.08340E+03  9.852E-01  9.930E+00  5.958E-02  1.328E+00
   1    3    4     1     4    1.3550E+01  2.1755E-01   1.3333E+01  0.000E+00  0.000E+00  0.000E+00  1.07839E+03  9.805E-01  9.847E+00  5.465E-02  1.327E+00
   1    4    5     2     1    1.1333E+01  2.9214E-01   1.1041E+01  0.000E+00  0.000E+00  0.000E+00  1.07268E+03  7.454E-01  1.200E+01  7.800E-02  1.248E+00
   1    5    6     2     2    1.1041E+01  2.2410E-01   1.0817E+01  0.000E+00  0.000E+00  0.000E+00  1.06724E+03  7.350E-01  1.200E+01  6.000E-02  1.245E+00
   1    6    6     2     3    1.0817E+01  2.2356E-01   1.0593E+01  0.000E+00  0.000E+00  0.000E+00  1.06252E+03  7.259E-01  1.200E+01  6.000E-02  1.242E+00
   1    7    6     2     4    1.0593E+01  2.2301E-01   1.0370E+01  0.000E+00  0.000E+00  0.000E+00  1.05779E+03  7.168E-01  1.200E+01  6.000E-02  1.239E+00
   1    8    6     2     5    1.0370E+01  2.2246E-01   1.0148E+01  0.000E+00  0.000E+00  0.000E+00  1.05307E+03  7.076E-01  1.200E+01  6.000E-02  1.236E+00
   1    3    5     3     1    2.0000E+00  2.8252E-01   1.7175E+00  0.000E+00  0.000E+00  0.000E+00  1.07555E+03  1.909E+00  9.636E+00  7.227E-02  1.955E+00
   1    3    6     3     2    1.7175E+00  2.4905E-01   1.4684E+00  0.000E+00  0.000E+00  0.000E+00  1.07264E+03  1.727E+00  8.909E+00  6.682E-02  1.864E+00
   1    3    7     3     3    1.4684E+00  1.9718E-01   1.2712E+00  0.000E+00  0.000E+00  0.000E+00  1.06987E+03  1.555E+00  8.218E+00  5.547E-02  1.777E+00
   1    4    8     3     4    1.2712E+00  2.2567E-01   1.0456E+00  0.000E+00  0.000E+00  0.000E+00  1.06682E+03  1.364E+00  7.455E+00  6.709E-02  1.682E+00
   1    5    8     3     5    1.0456E+00  1.5790E-01   8.8768E-01  0.000E+00  0.000E+00  0.000E+00  1.06362E+03  1.164E+00  6.655E+00  4.991E-02  1.582E+00
   1    6    8     3     6    8.8768E-01  5.5980E-02   8.3170E-01  0.000E+00  0.000E+00  0.000E+00  1.06158E+03  1.036E+00  6.145E+00  1.844E-02  1.518E+00
   1    5   10     4     1    1.0000E+01  9.0919E-02   9.9091E+00  0.000E+00  0.000E+00  0.000E+00  1.07836E+03  6.368E-01  1.000E+01  2.500E-02  1.212E+00
   1    5    9     4     2    9.9091E+00  1.8158E-01   9.7275E+00  0.000E+00  0.000E+00  0.000E+00  1.07154E+03  6.315E-01  1.000E+01  5.000E-02  1.211E+00
   1    6    8     4     3    9.7275E+00  1.2689E-01   9.6006E+00  0.000E+00  0.000E+00  0.000E+00  1.06381E+03  6.256E-01  1.000E+01  3.500E-02  1.209E+00
   1    6    8     5     1    1.0432E+01  2.2686E-01   1.0205E+01  0.000E+00  0.000E+00  0.000E+00  1.05868E+03  6.790E-01  1.542E+01  6.166E-02  1.226E+00
   1    7    7     5     2    1.0205E+01  2.7894E-01   9.9265E+00  0.000E+00  0.000E+00  0.000E+00  1.05417E+03  6.732E-01  1.519E+01  7.594E-02  1.224E+00
   1    8    7     5     3    9.9265E+00  1.9221E-01   9.7343E+00  0.000E+00  0.000E+00  0.000E+00  1.04992E+03  6.676E-01  1.497E+01  5.241E-02  1.223E+00
   1    8    6     5     4    9.7343E+00  1.3577E-01   9.5985E+00  0.000E+00  0.000E+00  0.000E+00  1.04691E+03  6.637E-01  1.482E+01  3.706E-02  1.221E+00
   1    9    6     6     1    1.9746E+01  2.4336E-01   1.9503E+01  0.000E+00  0.000E+00  0.000E+00  1.04378E+03  1.056E+00  1.200E+01  6.000E-02  1.352E+00
   1   10    7     6     2    1.9503E+01  2.4289E-01   1.9260E+01  0.000E+00  0.000E+00  0.000E+00  1.03923E+03  1.048E+00  1.200E+01  6.000E-02  1.349E+00
   1   11    7     6     3    1.9260E+01  2.4241E-01   1.9018E+01  0.000E+00  0.000E+00  0.000E+00  1.03468E+03  1.040E+00  1.200E+01  6.000E-02  1.347E+00
   1   12    7     6     4    1.9018E+01  2.4194E-01   1.8776E+01  0.000E+00  0.000E+00  0.000E+00  1.03012E+03  1.032E+00  1.200E+01  6.000E-02  1.344E+00
   1   13    7     6     5    1.8776E+01 -2.5596E-02   1.8801E+01  0.000E+00  0.000E+00  0.000E+00  1.02694E+03  1.029E+00  1.200E+01  2.400E-01 -3.555E-02
   1   14    9     7     1    1.5000E+02  1.3417E+00   1.4866E+02  0.000E+00  0.000E+00  0.000E+00  1.03987E+03  2.288E+00  5.529E+01  5.593E-01  7.996E-01
   1   13    8     7     2    1.4866E+02  1.8450E+00   1.4681E+02  0.000E+00  0.000E+00  0.000E+00  1.03478E+03  2.279E+00  5.526E+01  6.148E-01  1.000E+00
   1   13    7     7     3    1.4681E+02  1.4772E+00   1.4534E+02  0.000E+00  0.000E+00  0.000E+00  1.02969E+03  2.270E+00  5.522E+01  5.584E-01  8.817E-01
   1   13    6     8     1    1.6414E+02  8.9402E-01   1.6324E+02  0.000E+00  0.000E+00  0.000E+00  1.02479E+03  2.911E+00  4.220E+01  4.301E-01  6.929E-01
   1   13    5     8     2    1.6324E+02  1.5204E-01   1.6309E+02  0.000E+00  0.000E+00  0.000E+00  1.01853E+03  2.907E+00  4.215E+01  4.296E-01  1.180E-01
   1   13    4     8     3    1.6309E+02 -2.5166E+00   1.6561E+02  0.000E+00  0.000E+00  0.000E+00  1.01229E+03  2.915E+00  4.227E+01  4.307E+00 -1.948E-01
   1   13    3     8     4    1.6561E+02 -3.6797E+00   1.6929E+02  0.000E+00  0.000E+00  0.000E+00  1.00606E+03  2.936E+00  4.256E+01  4.337E+00 -2.828E-01
   1   13    2     8     5    1.6929E+02 -2.5872E+00   1.7187E+02  0.000E+00  0.000E+00  0.000E+00  9.99831E+02  2.956E+00  4.286E+01  4.368E+00 -1.974E-01
   1   13    1     8     6    1.7187E+02 -1.9899E+00   1.7386E+02  0.000E+00  0.000E+00  0.000E+00  9.94846E+02  2.971E+00  4.308E+01  2.634E+00 -2.518E-01
   1    8    6     9     1    0.0000E+00  0.0000E+00   0.0000E+00  0.000E+00  0.000E+00  0.000E+00  1.07875E+03  0.000E+00  4.000E+00  0.000E+00  1.000E+00
   1    8    5     9     2    0.0000E+00  0.0000E+00   0.0000E+00  0.000E+00  0.000E+00  0.000E+00  1.07825E+03  0.000E+00  4.000E+00  0.000E+00  1.000E+00





UNSATURATED ZONE PACKAGE VOLUMETRIC BUDGET FOR  TIME STEP    30 STRESS PERIOD   38
  ------------------------------------------------------------------------------



     CUMULATIVE VOLUMES      L**3       RATES FOR THIS TIME STEP      L**3/T
     ------------------                 ------------------------

           IN:                                      IN:
           ---                                      ---
        INFILTRATION =  1619941684.4397          INFILTRATION =           4.4075

          OUT:                                     OUT:
          ----                                     ----
              UZF ET =  1493466702.5931                UZF ET =           0.7250
        UZF RECHARGE =     1188922.5148          UZF RECHARGE =       0.0000E+00

            IN - OUT =   125286059.3317              IN - OUT =           3.6825

          STORAGE:                                 STORAGE:
          --------                                 --------
      STORAGE CHANGE =   125287026.5728        STORAGE CHANGE =           3.6825

 PERCENT DISCREPANCY IS DIFFERENCE BETWEEN IN-OUT MINUS CHANGE IN STORAGE
 DIVIDED BY THE AVERAGE OF IN AND OUT TIMES 100

 PERCENT DISCREPANCY =          -0.00     PERCENT DISCREPANCY =           0.00






1
  VOLUMETRIC BUDGET FOR AGRICULTURAL FIELDS AT TIME STEP   30, STRESS PERIOD  38
  ------------------------------------------------------------------------------

     CUMULATIVE VOLUMES      L**3       RATES FOR THIS TIME STEP      L**3/T
     ------------------                 ------------------------

           IN:                                      IN:
           ---                                      ---
               AG WELLS  =   218905344.0000                 AG WELLS  =           0.0000
      DIVERSION SEGMENTS =   972051904.0000        DIVERSION SEGMENTS =           0.0000
           GW IRRIGATION =           0.0000             GW IRRIGATION =           0.0000
           SW IRRIGATION =           0.0000             SW IRRIGATION =           0.0000
        SYSTEM LOSSES GW =           0.0000          SYSTEM LOSSES GW =           0.0000
        SYSTEM LOSSES SW =           0.0000          SYSTEM LOSSES SW =           0.0000

                TOTAL IN =  1190957312.0000                  TOTAL IN =           0.0000

          OUT:                                     OUT:
          ----                                     ----
               AG WELLS  =           0.0000                 AG WELLS  =           0.0000
      DIVERSION SEGMENTS =           0.0000        DIVERSION SEGMENTS =           0.0000
           GW IRRIGATION =   218905344.0000             GW IRRIGATION =           0.0000
           SW IRRIGATION =   972071424.0000             SW IRRIGATION =           0.0000
        SYSTEM LOSSES GW =           0.0000          SYSTEM LOSSES GW =           0.0000
        SYSTEM LOSSES SW =           0.0000          SYSTEM LOSSES SW =           0.0000

               TOTAL OUT =  1190976768.0000                 TOTAL OUT =           0.0000

                IN - OUT =      -19456.0000                  IN - OUT =           0.0000

     PERCENT DISCREPANCY =          -0.00         PERCENT DISCREPANCY =           0.00



1
  VOLUMETRIC BUDGET FOR ENTIRE MODEL AT END OF TIME STEP   30, STRESS PERIOD  38
  ------------------------------------------------------------------------------

     CUMULATIVE VOLUMES      L**3       RATES FOR THIS TIME STEP      L**3/T
     ------------------                 ------------------------

           IN:                                      IN:
           ---                                      ---
             STORAGE     =   375477504.0000               STORAGE     =           1.0816
       CONSTANT HEAD     =           0.0000         CONSTANT HEAD     =           0.0000
     HEAD DEP BOUNDS     =    27839936.0000       HEAD DEP BOUNDS     =           0.2862
      STREAM LEAKAGE     =  1159239936.0000        STREAM LEAKAGE     =          11.1840
        UZF RECHARGE     =     1188922.5000          UZF RECHARGE     =           0.0000
               GW ET     =           0.0000                 GW ET     =           0.0000
     SURFACE LEAKAGE     =           0.0000       SURFACE LEAKAGE     =           0.0000
           AG WELLS      =           0.0000             AG WELLS      =           0.0000

                TOTAL IN =  1563746304.0000                  TOTAL IN =          12.5518

          OUT:                                     OUT:
          ----                                     ----
             STORAGE     =   258655440.0000               STORAGE     =           1.4640
       CONSTANT HEAD     =           0.0000         CONSTANT HEAD     =           0.0000
     HEAD DEP BOUNDS     =    28305408.0000       HEAD DEP BOUNDS     =           0.2889
      STREAM LEAKAGE     =  1054537920.0000        STREAM LEAKAGE     =          10.7990
        UZF RECHARGE     =           0.0000          UZF RECHARGE     =           0.0000
               GW ET     =     3295915.0000                 GW ET     =           0.0000
     SURFACE LEAKAGE     =           0.0000       SURFACE LEAKAGE     =           0.0000
           AG WELLS      =   218905344.0000             AG WELLS      =           0.0000

               TOTAL OUT =  1563699968.0000                 TOTAL OUT =          12.5519

                IN - OUT =       46336.0000                  IN - OUT =      -1.0490E-04

     PERCENT DISCREPANCY =           0.00         PERCENT DISCREPANCY =          -0.00






         TIME SUMMARY AT END OF TIME STEP   30 IN STRESS PERIOD   38
                    SECONDS     MINUTES      HOURS       DAYS        YEARS
                    -----------------------------------------------------------
   TIME STEP LENGTH  87667.      1461.1      24.352      1.0147     2.77799E-03
 STRESS PERIOD TIME 2.63000E+06  43833.      730.56      30.440     8.33397E-02
         TOTAL TIME 9.73959E+07 1.62326E+06  27054.      1127.3      3.0863    
1
1
                            STRESS PERIOD NO.   39, LENGTH =   2630000.    
                            -----------------------------------------------

                              NUMBER OF TIME STEPS =    30

                               MULTIPLIER FOR DELT =     1.000

                            INITIAL TIME STEP SIZE =   87666.66    

 REUSING NON-PARAMETER GHB CELLS FROM LAST STRESS PERIOD

      2 GHB CELLS

 REUSING STREAM SEGMENT DATA FROM LAST STRESS PERIOD



            AREAL INFILTRATION RATE
 READING ON UNIT   19 WITH FORMAT: (10F4.0)            

            1           2           3           4           5           6           7           8           9          10
 ........................................................................................................................
   1   1.2000E-09   0.000       0.000       0.000       0.000       0.000       0.000       0.000       0.000       0.000    
   2   2.1000E-09  2.0000E-09  8.0000E-10  8.5000E-09   0.000       0.000       0.000       0.000       0.000       0.000    
   3   5.0000E-10  1.1000E-09  8.8000E-09  5.5000E-09   0.000       0.000       0.000       0.000       0.000       0.000    
   4   8.5000E-09  1.1000E-09  1.1000E-09  1.1000E-09  2.0000E-09   0.000       0.000       0.000       0.000       0.000    
   5   8.5000E-09  1.1000E-09  1.1000E-09  1.1000E-09  1.1000E-09   0.000       0.000       0.000       0.000       0.000    
   6   8.5000E-09  5.2000E-09  2.1000E-09  1.1000E-09  1.5000E-09   0.000       0.000       0.000       0.000       0.000    
   7   8.5000E-09  5.2000E-09  2.1000E-09  1.2000E-09  2.0000E-09   0.000       0.000       0.000       0.000       0.000    
   8   5.0000E-10  5.2000E-09  2.1000E-09  1.2000E-09  5.0000E-09   0.000       0.000       0.000       0.000       0.000    
   9   5.0000E-10  5.2000E-09  2.1000E-09  1.2000E-09  5.0000E-09   0.000       0.000       0.000       0.000       0.000    
  10   5.0000E-10  5.2000E-09  2.1000E-09  1.2000E-09  5.8000E-09   0.000       0.000       0.000       0.000       0.000    
  11   1.0000E-10  1.1000E-09  1.1000E-09  1.2000E-09  5.0000E-09   0.000       0.000       0.000       0.000       0.000    
  12   1.1000E-09  1.1000E-09  1.1000E-09  1.1000E-09  2.0000E-09   0.000       0.000       0.000       0.000       0.000    
  13   1.1000E-09  2.2000E-09  2.2000E-09  2.1000E-09  1.0000E-09   0.000       0.000       0.000       0.000       0.000    
  14   2.0000E-10  5.5000E-09  5.5000E-09  5.2000E-09  1.0000E-09   0.000       0.000       0.000       0.000       0.000    
  15    0.000      8.8000E-09  8.8000E-09   0.000       0.000       0.000       0.000       0.000       0.000       0.000    

                  ET RATE =  5.000000E-10

 USING ET EXTINCTION DEPTH FROM PREVIOUS STRESS PERIOD. CURRENT PERIOD IS:      39

 USING EXTINCTION WATER CONTENT FROM PREVIOUS STRESS PERIOD. CURRENT PERIOD IS:      39

 USING AIR ENTRY PRESSURE FROM PREVIOUS STRESS PERIOD. CURRENT PERIOD IS:      39

 USING ROOT PRESSURE HEAD FROM PREVIOUS STRESS PERIOD. CURRENT PERIOD IS:      39

 USING ROOT ACTIVITY FROM PREVIOUS STRESS PERIOD. CURRENT PERIOD IS:      39

 PROCESSING AG STRESS PERIOD DATA

 READING AG STRESS PERIOD DATA

 READING IRRIGATION SEGMENT

 READING IRRIGATION WELL

 READING SUPPLEMENTAL WELL

 END PROCESSING AG STRESS PERIOD DATA OPTIONS
 
 SOLVING FOR HEAD 
                                                   Max.-Head-Change                         Max.-Flux-Residual
  Residual-Control   Outer-Iter.   Inner-Iter.     Column Row Layer    Maximum-Head-Change  Column Row Layer    Maximum-Flux-Residual          L2-NORM 
          0                 1           2             4    7     1       0.2527801975E-02       4    7    1         0.1324417239E+00      0.3709274905E+00
          0                 2           2             4    7     1      -0.2458863224E-03       4    7    1        -0.1324418061E-01      0.3708883197E-01
          0                 3           1             4    7     1       0.1674394597E-04       4    7    1         0.9270929602E-03      0.2595877323E-02

    ------------------------------------------------
       NWT REQUIRED            3 OUTER ITERATIONS 
       AND A TOTAL OF          5 INNER ITERATIONS.
    ------------------------------------------------

 NO OUTPUT CONTROL FOR STRESS PERIOD   39   TIME STEP    1
 
 SOLVING FOR HEAD 
                                                   Max.-Head-Change                         Max.-Flux-Residual
  Residual-Control   Outer-Iter.   Inner-Iter.     Column Row Layer    Maximum-Head-Change  Column Row Layer    Maximum-Flux-Residual          L2-NORM 
          0                 1           2             4    7     1       0.2506991716E-02       4    7    1         0.1313455226E+00      0.3686775085E+00
          0                 2           2             4    7     1      -0.2438620490E-03       4    7    1        -0.1313456030E-01      0.3686422443E-01
          0                 3           1             4    7     1       0.1660610083E-04       4    7    1         0.9194195475E-03      0.2580190691E-02

    ------------------------------------------------
       NWT REQUIRED            3 OUTER ITERATIONS 
       AND A TOTAL OF          5 INNER ITERATIONS.
    ------------------------------------------------

 NO OUTPUT CONTROL FOR STRESS PERIOD   39   TIME STEP    2
 
 SOLVING FOR HEAD 
                                                   Max.-Head-Change                         Max.-Flux-Residual
  Residual-Control   Outer-Iter.   Inner-Iter.     Column Row Layer    Maximum-Head-Change  Column Row Layer    Maximum-Flux-Residual          L2-NORM 
          0                 1           2             4    7     1       0.2486510131E-02       4    7    1         0.1302665319E+00      0.3620279258E+00
          0                 2           2             4    7     1      -0.2418697468E-03       4    7    1        -0.1302666108E-01      0.3620079692E-01
          0                 3           1             4    7     1       0.1647043213E-04       4    7    1         0.9118665830E-03      0.2533851703E-02

    ------------------------------------------------
       NWT REQUIRED            3 OUTER ITERATIONS 
       AND A TOTAL OF          5 INNER ITERATIONS.
    ------------------------------------------------

 NO OUTPUT CONTROL FOR STRESS PERIOD   39   TIME STEP    3
 
 SOLVING FOR HEAD 
                                                   Max.-Head-Change                         Max.-Flux-Residual
  Residual-Control   Outer-Iter.   Inner-Iter.     Column Row Layer    Maximum-Head-Change  Column Row Layer    Maximum-Flux-Residual          L2-NORM 
          0                 1           2             4    7     1       0.2466088991E-02       4    7    1         0.1291897842E+00      0.3594081172E+00
          0                 2           2             4    7     1      -0.2398833247E-03       4    7    1        -0.1291898615E-01      0.3593268160E-01
          0                 3           1             4    7     1       0.1633516436E-04       4    7    1         0.9043293517E-03      0.2514532388E-02

    ------------------------------------------------
       NWT REQUIRED            3 OUTER ITERATIONS 
       AND A TOTAL OF          5 INNER ITERATIONS.
    ------------------------------------------------

 NO OUTPUT CONTROL FOR STRESS PERIOD   39   TIME STEP    4
 
 SOLVING FOR HEAD 
                                                   Max.-Head-Change                         Max.-Flux-Residual
  Residual-Control   Outer-Iter.   Inner-Iter.     Column Row Layer    Maximum-Head-Change  Column Row Layer    Maximum-Flux-Residual          L2-NORM 
          0                 1           2             4    7     1       0.2446268573E-02       4    7    1         0.1281457675E+00      0.3570597965E+00
          0                 2           2             4    7     1      -0.2379553357E-03       4    7    1        -0.1281458431E-01      0.3569927987E-01
          0                 3           1             4    7     1       0.1620387531E-04       4    7    1         0.8970212016E-03      0.2498268278E-02

    ------------------------------------------------
       NWT REQUIRED            3 OUTER ITERATIONS 
       AND A TOTAL OF          5 INNER ITERATIONS.
    ------------------------------------------------

 NO OUTPUT CONTROL FOR STRESS PERIOD   39   TIME STEP    5
 
 SOLVING FOR HEAD 
                                                   Max.-Head-Change                         Max.-Flux-Residual
  Residual-Control   Outer-Iter.   Inner-Iter.     Column Row Layer    Maximum-Head-Change  Column Row Layer    Maximum-Flux-Residual          L2-NORM 
          0                 1           2             4    7     1       0.2426490109E-02       4    7    1         0.1271033006E+00      0.3547856061E+00
          0                 2           2             4    7     1      -0.2360314286E-03       4    7    1        -0.1271033747E-01      0.3547308872E-01
          0                 3           1             4    7     1       0.1607286458E-04       4    7    1         0.8897239375E-03      0.2482647114E-02

    ------------------------------------------------
       NWT REQUIRED            3 OUTER ITERATIONS 
       AND A TOTAL OF          5 INNER ITERATIONS.
    ------------------------------------------------

 NO OUTPUT CONTROL FOR STRESS PERIOD   39   TIME STEP    6
 
 SOLVING FOR HEAD 
                                                   Max.-Head-Change                         Max.-Flux-Residual
  Residual-Control   Outer-Iter.   Inner-Iter.     Column Row Layer    Maximum-Head-Change  Column Row Layer    Maximum-Flux-Residual          L2-NORM 
          0                 1           2             4    7     1       0.2407030113E-02       4    7    1         0.1260778074E+00      0.3525875748E+00
          0                 2           2             4    7     1      -0.2341384993E-03       4    7    1        -0.1260778800E-01      0.3525422709E-01
          0                 3           1             4    7     1       0.1594396309E-04       4    7    1         0.8825454679E-03      0.2467397026E-02

    ------------------------------------------------
       NWT REQUIRED            3 OUTER ITERATIONS 
       AND A TOTAL OF          5 INNER ITERATIONS.
    ------------------------------------------------

 NO OUTPUT CONTROL FOR STRESS PERIOD   39   TIME STEP    7
 
 SOLVING FOR HEAD 
                                                   Max.-Head-Change                         Max.-Flux-Residual
  Residual-Control   Outer-Iter.   Inner-Iter.     Column Row Layer    Maximum-Head-Change  Column Row Layer    Maximum-Flux-Residual          L2-NORM 
          0                 1           2             4    7     1       0.2387876094E-02       4    7    1         0.1250688265E+00      0.3504465550E+00
          0                 2           2             4    7     1      -0.2322753337E-03       4    7    1        -0.1250688978E-01      0.3504095298E-01
          0                 3           1             4    7     1       0.1581708870E-04       4    7    1         0.8754825951E-03      0.2452614940E-02

    ------------------------------------------------
       NWT REQUIRED            3 OUTER ITERATIONS 
       AND A TOTAL OF          5 INNER ITERATIONS.
    ------------------------------------------------

 NO OUTPUT CONTROL FOR STRESS PERIOD   39   TIME STEP    8
 
 SOLVING FOR HEAD 
                                                   Max.-Head-Change                         Max.-Flux-Residual
  Residual-Control   Outer-Iter.   Inner-Iter.     Column Row Layer    Maximum-Head-Change  Column Row Layer    Maximum-Flux-Residual          L2-NORM 
          0                 1           2             4    7     1       0.2369025207E-02       4    7    1         0.1240757101E+00      0.3483661902E+00
          0                 2           2             4    7     1      -0.2304416545E-03       4    7    1        -0.1240757799E-01      0.3483357217E-01
          0                 3           1             4    7     1       0.1569222201E-04       4    7    1         0.8685307871E-03      0.2438068271E-02

    ------------------------------------------------
       NWT REQUIRED            3 OUTER ITERATIONS 
       AND A TOTAL OF          5 INNER ITERATIONS.
    ------------------------------------------------

 NO OUTPUT CONTROL FOR STRESS PERIOD   39   TIME STEP    9
 
 SOLVING FOR HEAD 
                                                   Max.-Head-Change                         Max.-Flux-Residual
  Residual-Control   Outer-Iter.   Inner-Iter.     Column Row Layer    Maximum-Head-Change  Column Row Layer    Maximum-Flux-Residual          L2-NORM 
          0                 1           2             4    7     1       0.2350200058E-02       4    7    1         0.1230835120E+00      0.3463338219E+00
          0                 2           2             4    7     1      -0.2286106447E-03       4    7    1        -0.1230835802E-01      0.3463974264E-01
          0                 3           1             4    7     1       0.1556753733E-04       4    7    1         0.8615853842E-03      0.2424509457E-02

    ------------------------------------------------
       NWT REQUIRED            3 OUTER ITERATIONS 
       AND A TOTAL OF          5 INNER ITERATIONS.
    ------------------------------------------------

 NO OUTPUT CONTROL FOR STRESS PERIOD   39   TIME STEP   10
 
 SOLVING FOR HEAD 
                                                   Max.-Head-Change                         Max.-Flux-Residual
  Residual-Control   Outer-Iter.   Inner-Iter.     Column Row Layer    Maximum-Head-Change  Column Row Layer    Maximum-Flux-Residual          L2-NORM 
          0                 1           2             4    7     1       0.2331937205E-02       4    7    1         0.1221222373E+00      0.3443294137E+00
          0                 2           2             4    7     1      -0.2268339987E-03       4    7    1        -0.1221223043E-01      0.3443089070E-01
          0                 3           1             4    7     1       0.1544655374E-04       4    7    1         0.8548564331E-03      0.2409917488E-02

    ------------------------------------------------
       NWT REQUIRED            3 OUTER ITERATIONS 
       AND A TOTAL OF          5 INNER ITERATIONS.
    ------------------------------------------------

 NO OUTPUT CONTROL FOR STRESS PERIOD   39   TIME STEP   11
 
 SOLVING FOR HEAD 
                                                   Max.-Head-Change                         Max.-Flux-Residual
  Residual-Control   Outer-Iter.   Inner-Iter.     Column Row Layer    Maximum-Head-Change  Column Row Layer    Maximum-Flux-Residual          L2-NORM 
          0                 1           2             4    7     1       0.2313681915E-02       4    7    1         0.1211605366E+00      0.3423710536E+00
          0                 2           2             4    7     1      -0.2250582552E-03       4    7    1        -0.1211606024E-01      0.3423546251E-01
          0                 3           1             4    7     1       0.1532563216E-04       4    7    1         0.8481245181E-03      0.2396322745E-02

    ------------------------------------------------
       NWT REQUIRED            3 OUTER ITERATIONS 
       AND A TOTAL OF          5 INNER ITERATIONS.
    ------------------------------------------------

 NO OUTPUT CONTROL FOR STRESS PERIOD   39   TIME STEP   12
 
 SOLVING FOR HEAD 
                                                   Max.-Head-Change                         Max.-Flux-Residual
  Residual-Control   Outer-Iter.   Inner-Iter.     Column Row Layer    Maximum-Head-Change  Column Row Layer    Maximum-Flux-Residual          L2-NORM 
          0                 1           2             4    7     1       0.2295706534E-02       4    7    1         0.1202140183E+00      0.3404387379E+00
          0                 2           2             4    7     1      -0.2233097386E-03       4    7    1        -0.1202140829E-01      0.3404215497E-01
          0                 3           1             4    7     1       0.1520656444E-04       4    7    1         0.8414988672E-03      0.2382785932E-02

    ------------------------------------------------
       NWT REQUIRED            3 OUTER ITERATIONS 
       AND A TOTAL OF          5 INNER ITERATIONS.
    ------------------------------------------------

 NO OUTPUT CONTROL FOR STRESS PERIOD   39   TIME STEP   13
 
 SOLVING FOR HEAD 
                                                   Max.-Head-Change                         Max.-Flux-Residual
  Residual-Control   Outer-Iter.   Inner-Iter.     Column Row Layer    Maximum-Head-Change  Column Row Layer    Maximum-Flux-Residual          L2-NORM 
          0                 1           2             4    7     1       0.2278013888E-02       4    7    1         0.1192820129E+00      0.3385531477E+00
          0                 2           2             4    7     1      -0.2215887250E-03       4    7    1        -0.1192820760E-01      0.3385428462E-01
          0                 3           1             4    7     1       0.1508937046E-04       4    7    1         0.8349748450E-03      0.2369754151E-02

    ------------------------------------------------
       NWT REQUIRED            3 OUTER ITERATIONS 
       AND A TOTAL OF          5 INNER ITERATIONS.
    ------------------------------------------------

 NO OUTPUT CONTROL FOR STRESS PERIOD   39   TIME STEP   14
 
 SOLVING FOR HEAD 
                                                   Max.-Head-Change                         Max.-Flux-Residual
  Residual-Control   Outer-Iter.   Inner-Iter.     Column Row Layer    Maximum-Head-Change  Column Row Layer    Maximum-Flux-Residual          L2-NORM 
          0                 1           2             4    7     1       0.2260588974E-02       4    7    1         0.1183646672E+00      0.3366968762E+00
          0                 2           2             4    7     1      -0.2198937542E-03       4    7    1        -0.1183647292E-01      0.3366883715E-01
          0                 3           1             4    7     1       0.1497394869E-04       4    7    1         0.8285533954E-03      0.2356741600E-02

    ------------------------------------------------
       NWT REQUIRED            3 OUTER ITERATIONS 
       AND A TOTAL OF          5 INNER ITERATIONS.
    ------------------------------------------------

 NO OUTPUT CONTROL FOR STRESS PERIOD   39   TIME STEP   15
 
 SOLVING FOR HEAD 
                                                   Max.-Head-Change                         Max.-Flux-Residual
  Residual-Control   Outer-Iter.   Inner-Iter.     Column Row Layer    Maximum-Head-Change  Column Row Layer    Maximum-Flux-Residual          L2-NORM 
          0                 1           2             4    7     1       0.2243426379E-02       4    7    1         0.1174612029E+00      0.3348664069E+00
          0                 2           2             4    7     1      -0.2182243002E-03       4    7    1        -0.1174612638E-01      0.3348603431E-01
          0                 3           1             4    7     1       0.1486026529E-04       4    7    1         0.8222291476E-03      0.2344006005E-02

    ------------------------------------------------
       NWT REQUIRED            3 OUTER ITERATIONS 
       AND A TOTAL OF          5 INNER ITERATIONS.
    ------------------------------------------------

 NO OUTPUT CONTROL FOR STRESS PERIOD   39   TIME STEP   16
 
 SOLVING FOR HEAD 
                                                   Max.-Head-Change                         Max.-Flux-Residual
  Residual-Control   Outer-Iter.   Inner-Iter.     Column Row Layer    Maximum-Head-Change  Column Row Layer    Maximum-Flux-Residual          L2-NORM 
          0                 1           2             4    7     1       0.2226518710E-02       4    7    1         0.1165713396E+00      0.3330727891E+00
          0                 2           2             4    7     1      -0.2165796432E-03       4    7    1        -0.1165713995E-01      0.3330674203E-01
          0                 3           1             4    7     1       0.1474827008E-04       4    7    1         0.8160000732E-03      0.2331384175E-02

    ------------------------------------------------
       NWT REQUIRED            3 OUTER ITERATIONS 
       AND A TOTAL OF          5 INNER ITERATIONS.
    ------------------------------------------------

 NO OUTPUT CONTROL FOR STRESS PERIOD   39   TIME STEP   17
 
 SOLVING FOR HEAD 
                                                   Max.-Head-Change                         Max.-Flux-Residual
  Residual-Control   Outer-Iter.   Inner-Iter.     Column Row Layer    Maximum-Head-Change  Column Row Layer    Maximum-Flux-Residual          L2-NORM 
          0                 1           2             4    7     1       0.2209863251E-02       4    7    1         0.1156946939E+00      0.3313034366E+00
          0                 2           2             4    7     1      -0.2149595197E-03       4    7    1        -0.1156947525E-01      0.3312993378E-01
          0                 3           1             4    7     1       0.1463794601E-04       4    7    1         0.8098635731E-03      0.2319066240E-02

    ------------------------------------------------
       NWT REQUIRED            3 OUTER ITERATIONS 
       AND A TOTAL OF          5 INNER ITERATIONS.
    ------------------------------------------------

 NO OUTPUT CONTROL FOR STRESS PERIOD   39   TIME STEP   18
 
 SOLVING FOR HEAD 
                                                   Max.-Head-Change                         Max.-Flux-Residual
  Residual-Control   Outer-Iter.   Inner-Iter.     Column Row Layer    Maximum-Head-Change  Column Row Layer    Maximum-Flux-Residual          L2-NORM 
          0                 1           2             4    7     1       0.2193180481E-02       4    7    1         0.1148163256E+00      0.3295541778E+00
          0                 2           2             4    7     1      -0.2133367397E-03       4    7    1        -0.1148163833E-01      0.3295512894E-01
          0                 3           1             4    7     1       0.1452744066E-04       4    7    1         0.8037149839E-03      0.2306815214E-02

    ------------------------------------------------
       NWT REQUIRED            3 OUTER ITERATIONS 
       AND A TOTAL OF          5 INNER ITERATIONS.
    ------------------------------------------------

 NO OUTPUT CONTROL FOR STRESS PERIOD   39   TIME STEP   19
 
 SOLVING FOR HEAD 
                                                   Max.-Head-Change                         Max.-Flux-Residual
  Residual-Control   Outer-Iter.   Inner-Iter.     Column Row Layer    Maximum-Head-Change  Column Row Layer    Maximum-Flux-Residual          L2-NORM 
          0                 1           2             4    7     1       0.2176751308E-02       4    7    1         0.1139513407E+00      0.3278287927E+00
          0                 2           2             4    7     1      -0.2117386272E-03       4    7    1        -0.1139513971E-01      0.3278263959E-01
          0                 3           1             4    7     1       0.1441861498E-04       4    7    1         0.7976600691E-03      0.2294740193E-02

    ------------------------------------------------
       NWT REQUIRED            3 OUTER ITERATIONS 
       AND A TOTAL OF          5 INNER ITERATIONS.
    ------------------------------------------------

 NO OUTPUT CONTROL FOR STRESS PERIOD   39   TIME STEP   20
 
 SOLVING FOR HEAD 
                                                   Max.-Head-Change                         Max.-Flux-Residual
  Residual-Control   Outer-Iter.   Inner-Iter.     Column Row Layer    Maximum-Head-Change  Column Row Layer    Maximum-Flux-Residual          L2-NORM 
          0                 1           2             4    7     1       0.2160835529E-02       4    7    1         0.1131143042E+00      0.3261271991E+00
          0                 2           2             4    7     1      -0.2101904547E-03       4    7    1        -0.1131143598E-01      0.3261254134E-01
          0                 3           1             4    7     1       0.1431319029E-04       4    7    1         0.7918008057E-03      0.2282846556E-02

    ------------------------------------------------
       NWT REQUIRED            3 OUTER ITERATIONS 
       AND A TOTAL OF          5 INNER ITERATIONS.
    ------------------------------------------------

 NO OUTPUT CONTROL FOR STRESS PERIOD   39   TIME STEP   21
 
 SOLVING FOR HEAD 
                                                   Max.-Head-Change                         Max.-Flux-Residual
  Residual-Control   Outer-Iter.   Inner-Iter.     Column Row Layer    Maximum-Head-Change  Column Row Layer    Maximum-Flux-Residual          L2-NORM 
          0                 1           2             4    7     1       0.2144871447E-02       4    7    1         0.1122742871E+00      0.3244468519E+00
          0                 2           2             4    7     1      -0.2086375833E-03       4    7    1        -0.1122743416E-01      0.3244454834E-01
          0                 3           1             4    7     1       0.1420744538E-04       4    7    1         0.7859206842E-03      0.2271094885E-02

    ------------------------------------------------
       NWT REQUIRED            3 OUTER ITERATIONS 
       AND A TOTAL OF          5 INNER ITERATIONS.
    ------------------------------------------------

 NO OUTPUT CONTROL FOR STRESS PERIOD   39   TIME STEP   22
 
 SOLVING FOR HEAD 
                                                   Max.-Head-Change                         Max.-Flux-Residual
  Residual-Control   Outer-Iter.   Inner-Iter.     Column Row Layer    Maximum-Head-Change  Column Row Layer    Maximum-Flux-Residual          L2-NORM 
          0                 1           2             4    7     1       0.2129142404E-02       4    7    1         0.1114465654E+00      0.3227929592E+00
          0                 2           2             4    7     1      -0.2071075749E-03       4    7    1        -0.1114466189E-01      0.3227922407E-01
          0                 3           1             4    7     1       0.1410325778E-04       4    7    1         0.7801266240E-03      0.2259556807E-02

    ------------------------------------------------
       NWT REQUIRED            3 OUTER ITERATIONS 
       AND A TOTAL OF          5 INNER ITERATIONS.
    ------------------------------------------------

 NO OUTPUT CONTROL FOR STRESS PERIOD   39   TIME STEP   23
 
 SOLVING FOR HEAD 
                                                   Max.-Head-Change                         Max.-Flux-Residual
  Residual-Control   Outer-Iter.   Inner-Iter.     Column Row Layer    Maximum-Head-Change  Column Row Layer    Maximum-Flux-Residual          L2-NORM 
          0                 1           2             4    7     1       0.2113643377E-02       4    7    1         0.1106310302E+00      0.3211513896E+00
          0                 2           2             4    7     1      -0.2055999404E-03       4    7    1        -0.1106310826E-01      0.3211507433E-01
          0                 3           1             4    7     1       0.1400059294E-04       4    7    1         0.7744178554E-03      0.2248047980E-02

    ------------------------------------------------
       NWT REQUIRED            3 OUTER ITERATIONS 
       AND A TOTAL OF          5 INNER ITERATIONS.
    ------------------------------------------------

 NO OUTPUT CONTROL FOR STRESS PERIOD   39   TIME STEP   24
 
 SOLVING FOR HEAD 
                                                   Max.-Head-Change                         Max.-Flux-Residual
  Residual-Control   Outer-Iter.   Inner-Iter.     Column Row Layer    Maximum-Head-Change  Column Row Layer    Maximum-Flux-Residual          L2-NORM 
          0                 1           2             4    7     1       0.2098091689E-02       4    7    1         0.1098126212E+00      0.3195277342E+00
          0                 2           2             4    7     1      -0.2040871841E-03       4    7    1        -0.1098126727E-01      0.3195273100E-01
          0                 3           1             4    7     1       0.1389758019E-04       4    7    1         0.7686890024E-03      0.2236722563E-02

    ------------------------------------------------
       NWT REQUIRED            3 OUTER ITERATIONS 
       AND A TOTAL OF          5 INNER ITERATIONS.
    ------------------------------------------------

 NO OUTPUT CONTROL FOR STRESS PERIOD   39   TIME STEP   25
 
 SOLVING FOR HEAD 
                                                   Max.-Head-Change                         Max.-Flux-Residual
  Residual-Control   Outer-Iter.   Inner-Iter.     Column Row Layer    Maximum-Head-Change  Column Row Layer    Maximum-Flux-Residual          L2-NORM 
          0                 1           2             4    7     1       0.2083039150E-02       4    7    1         0.1090210816E+00      0.3179289297E+00
          0                 2           2             4    7     1      -0.2026229812E-03       4    7    1        -0.1090211322E-01      0.3179285179E-01
          0                 3           1             4    7     1       0.1379787329E-04       4    7    1         0.7631482104E-03      0.2225494293E-02

    ------------------------------------------------
       NWT REQUIRED            3 OUTER ITERATIONS 
       AND A TOTAL OF          5 INNER ITERATIONS.
    ------------------------------------------------

 NO OUTPUT CONTROL FOR STRESS PERIOD   39   TIME STEP   26
 
 SOLVING FOR HEAD 
                                                   Max.-Head-Change                         Max.-Flux-Residual
  Residual-Control   Outer-Iter.   Inner-Iter.     Column Row Layer    Maximum-Head-Change  Column Row Layer    Maximum-Flux-Residual          L2-NORM 
          0                 1           2             4    7     1       0.2067928379E-02       4    7    1         0.1082258223E+00      0.3163471449E+00
          0                 2           2             4    7     1      -0.2011531135E-03       4    7    1        -0.1082258719E-01      0.3163469805E-01
          0                 3           1             4    7     1       0.1369778109E-04       4    7    1         0.7575813770E-03      0.2214430676E-02

    ------------------------------------------------
       NWT REQUIRED            3 OUTER ITERATIONS 
       AND A TOTAL OF          5 INNER ITERATIONS.
    ------------------------------------------------

 NO OUTPUT CONTROL FOR STRESS PERIOD   39   TIME STEP   27
 
 SOLVING FOR HEAD 
                                                   Max.-Head-Change                         Max.-Flux-Residual
  Residual-Control   Outer-Iter.   Inner-Iter.     Column Row Layer    Maximum-Head-Change  Column Row Layer    Maximum-Flux-Residual          L2-NORM 
          0                 1           2             4    7     1       0.2053308280E-02       4    7    1         0.1074571439E+00      0.3147839439E+00
          0                 2           2             4    7     1      -0.1997309756E-03       4    7    1        -0.1074571927E-01      0.3147837988E-01
          0                 3           1             4    7     1       0.1360093864E-04       4    7    1         0.7522006281E-03      0.2203483750E-02

    ------------------------------------------------
       NWT REQUIRED            3 OUTER ITERATIONS 
       AND A TOTAL OF          5 INNER ITERATIONS.
    ------------------------------------------------

 NO OUTPUT CONTROL FOR STRESS PERIOD   39   TIME STEP   28
 
 SOLVING FOR HEAD 
                                                   Max.-Head-Change                         Max.-Flux-Residual
  Residual-Control   Outer-Iter.   Inner-Iter.     Column Row Layer    Maximum-Head-Change  Column Row Layer    Maximum-Flux-Residual          L2-NORM 
          0                 1           2             4    7     1       0.2038615169E-02       4    7    1         0.1066843061E+00      0.3132422294E+00
          0                 2           2             4    7     1      -0.1983017349E-03       4    7    1        -0.1066843538E-01      0.3132420361E-01
          0                 3           1             4    7     1       0.1350361244E-04       4    7    1         0.7467907512E-03      0.2192720725E-02

    ------------------------------------------------
       NWT REQUIRED            3 OUTER ITERATIONS 
       AND A TOTAL OF          5 INNER ITERATIONS.
    ------------------------------------------------

 NO OUTPUT CONTROL FOR STRESS PERIOD   39   TIME STEP   29
 
 SOLVING FOR HEAD 
                                                   Max.-Head-Change                         Max.-Flux-Residual
  Residual-Control   Outer-Iter.   Inner-Iter.     Column Row Layer    Maximum-Head-Change  Column Row Layer    Maximum-Flux-Residual          L2-NORM 
          0                 1           2             4   13     1       0.6416242162E-02       4   13    1         0.3685101057E+00      0.7459503183E+00
          0                 2           2             7   13     1      -0.1730162655E-02       7   13    1        -0.9595476964E-01      0.1150028809E+00
          0                 3           2             7   13     1       0.1177849507E-03       7   13    1         0.6714943464E-02      0.8118019404E-02
          0                 4           1             7   13     1      -0.4685219470E-05       7   13    1        -0.2745439779E-03      0.3978433835E-03

    ------------------------------------------------
       NWT REQUIRED            4 OUTER ITERATIONS 
       AND A TOTAL OF          7 INNER ITERATIONS.
    ------------------------------------------------

 NO OUTPUT CONTROL FOR STRESS PERIOD   39   TIME STEP   30



 STREAM LISTING     PERIOD     39   STEP       30

 LAYER ROW COL. STREAM  RCH.  FLOW INTO     FLOW TO   FLOW OUT OF   OVRLND.     DIRECT     STREAM       STREAM     STREAM     STREAM   STREAMBED  STREAMBED
                SEG.NO.  NO.  STRM. RCH.    AQUIFER    STRM. RCH.    RUNOFF     PRECIP       ET          HEAD       DEPTH      WIDTH   CONDCTNC.   GRADIENT

   1    1    1     1     1    3.2750E+01  2.7790E-01   3.2473E+01  0.000E+00  0.000E+00  0.000E+00  1.09432E+03  1.273E+00  1.445E+01  6.503E-02  1.424E+00
   1    2    2     1     2    3.2473E+01  4.3019E-01   3.2042E+01  0.000E+00  0.000E+00  0.000E+00  1.08933E+03  1.270E+00  1.439E+01  1.007E-01  1.423E+00
   1    3    3     1     3    3.2042E+01  3.6669E-01   3.1676E+01  0.000E+00  0.000E+00  0.000E+00  1.08369E+03  1.267E+00  1.432E+01  8.594E-02  1.422E+00
   1    3    4     1     4    3.1676E+01  3.3752E-01   3.1338E+01  0.000E+00  0.000E+00  0.000E+00  1.07867E+03  1.264E+00  1.426E+01  7.916E-02  1.421E+00
   1    4    5     2     1    2.9338E+01  3.3732E-01   2.9001E+01  0.000E+00  0.000E+00  0.000E+00  1.07326E+03  1.325E+00  1.200E+01  7.800E-02  1.442E+00
   1    5    6     2     2    2.9001E+01  2.5899E-01   2.8742E+01  0.000E+00  0.000E+00  0.000E+00  1.06783E+03  1.317E+00  1.200E+01  6.000E-02  1.439E+00
   1    6    6     2     3    2.8742E+01  2.5857E-01   2.8483E+01  0.000E+00  0.000E+00  0.000E+00  1.06310E+03  1.309E+00  1.200E+01  6.000E-02  1.436E+00
   1    7    6     2     4    2.8483E+01  2.5814E-01   2.8225E+01  0.000E+00  0.000E+00  0.000E+00  1.05838E+03  1.302E+00  1.200E+01  6.000E-02  1.434E+00
   1    8    6     2     5    2.8225E+01  2.5771E-01   2.7967E+01  0.000E+00  0.000E+00  0.000E+00  1.05365E+03  1.295E+00  1.200E+01  6.000E-02  1.432E+00
   1    3    5     3     1    2.0000E+00  2.8252E-01   1.7175E+00  0.000E+00  0.000E+00  0.000E+00  1.07555E+03  1.909E+00  9.636E+00  7.227E-02  1.955E+00
   1    3    6     3     2    1.7175E+00  2.4905E-01   1.4684E+00  0.000E+00  0.000E+00  0.000E+00  1.07264E+03  1.727E+00  8.909E+00  6.682E-02  1.864E+00
   1    3    7     3     3    1.4684E+00  1.9718E-01   1.2712E+00  0.000E+00  0.000E+00  0.000E+00  1.06987E+03  1.555E+00  8.218E+00  5.547E-02  1.777E+00
   1    4    8     3     4    1.2712E+00  2.2567E-01   1.0456E+00  0.000E+00  0.000E+00  0.000E+00  1.06682E+03  1.364E+00  7.455E+00  6.709E-02  1.682E+00
   1    5    8     3     5    1.0456E+00  1.5790E-01   8.8768E-01  0.000E+00  0.000E+00  0.000E+00  1.06362E+03  1.164E+00  6.655E+00  4.991E-02  1.582E+00
   1    6    8     3     6    8.8768E-01  5.5980E-02   8.3170E-01  0.000E+00  0.000E+00  0.000E+00  1.06158E+03  1.036E+00  6.145E+00  1.844E-02  1.518E+00
   1    5   10     4     1    1.0000E+01  9.0919E-02   9.9091E+00  0.000E+00  0.000E+00  0.000E+00  1.07836E+03  6.368E-01  1.000E+01  2.500E-02  1.212E+00
   1    5    9     4     2    9.9091E+00  1.8158E-01   9.7275E+00  0.000E+00  0.000E+00  0.000E+00  1.07154E+03  6.315E-01  1.000E+01  5.000E-02  1.211E+00
   1    6    8     4     3    9.7275E+00  1.2689E-01   9.6006E+00  0.000E+00  0.000E+00  0.000E+00  1.06381E+03  6.256E-01  1.000E+01  3.500E-02  1.209E+00
   1    6    8     5     1    1.0432E+01  2.2686E-01   1.0205E+01  0.000E+00  0.000E+00  0.000E+00  1.05868E+03  6.790E-01  1.542E+01  6.166E-02  1.226E+00
   1    7    7     5     2    1.0205E+01  2.7894E-01   9.9265E+00  0.000E+00  0.000E+00  0.000E+00  1.05417E+03  6.732E-01  1.519E+01  7.594E-02  1.224E+00
   1    8    7     5     3    9.9265E+00  1.9221E-01   9.7343E+00  0.000E+00  0.000E+00  0.000E+00  1.04992E+03  6.676E-01  1.497E+01  5.241E-02  1.223E+00
   1    8    6     5     4    9.7343E+00  1.3577E-01   9.5985E+00  0.000E+00  0.000E+00  0.000E+00  1.04691E+03  6.637E-01  1.482E+01  3.706E-02  1.221E+00
   1    9    6     6     1    3.7566E+01  2.7334E-01   3.7293E+01  0.000E+00  0.000E+00  0.000E+00  1.04428E+03  1.556E+00  1.200E+01  6.000E-02  1.519E+00
   1   10    7     6     2    3.7293E+01  2.7293E-01   3.7020E+01  0.000E+00  0.000E+00  0.000E+00  1.03973E+03  1.549E+00  1.200E+01  6.000E-02  1.516E+00
   1   11    7     6     3    3.7020E+01  2.7252E-01   3.6747E+01  0.000E+00  0.000E+00  0.000E+00  1.03518E+03  1.542E+00  1.200E+01  6.000E-02  1.514E+00
   1   12    7     6     4    3.6747E+01  2.7211E-01   3.6475E+01  0.000E+00  0.000E+00  0.000E+00  1.03063E+03  1.535E+00  1.200E+01  6.000E-02  1.512E+00
   1   13    7     6     5    3.6475E+01  9.5828E-03   3.6465E+01  0.000E+00  0.000E+00  0.000E+00  1.02744E+03  1.532E+00  1.200E+01  2.400E-02  1.331E-01
   1   14    9     7     1    1.5000E+02  1.3422E+00   1.4866E+02  0.000E+00  0.000E+00  0.000E+00  1.03987E+03  2.288E+00  5.529E+01  5.593E-01  7.999E-01
   1   13    8     7     2    1.4866E+02  1.8466E+00   1.4681E+02  0.000E+00  0.000E+00  0.000E+00  1.03478E+03  2.279E+00  5.526E+01  6.148E-01  1.001E+00
   1   13    7     7     3    1.4681E+02  1.4789E+00   1.4533E+02  0.000E+00  0.000E+00  0.000E+00  1.02969E+03  2.270E+00  5.522E+01  5.584E-01  8.828E-01
   1   13    6     8     1    1.8180E+02  9.8179E-01   1.8082E+02  0.000E+00  0.000E+00  0.000E+00  1.02490E+03  3.024E+00  4.385E+01  4.469E-01  7.323E-01
   1   13    5     8     2    1.8082E+02  2.1045E-01   1.8061E+02  0.000E+00  0.000E+00  0.000E+00  1.01865E+03  3.021E+00  4.380E+01  4.463E-01  1.572E-01
   1   13    4     8     3    1.8061E+02 -2.1514E+00   1.8276E+02  0.000E+00  0.000E+00  0.000E+00  1.01240E+03  3.027E+00  4.389E+01  4.472E+00 -1.604E-01
   1   13    3     8     4    1.8276E+02 -3.3658E+00   1.8612E+02  0.000E+00  0.000E+00  0.000E+00  1.00617E+03  3.044E+00  4.414E+01  4.498E+00 -2.495E-01
   1   13    2     8     5    1.8612E+02 -2.2464E+00   1.8837E+02  0.000E+00  0.000E+00  0.000E+00  9.99936E+02  3.061E+00  4.439E+01  4.523E+00 -1.655E-01
   1   13    1     8     6    1.8837E+02 -1.7908E+00   1.9016E+02  0.000E+00  0.000E+00  0.000E+00  9.94948E+02  3.073E+00  4.457E+01  2.725E+00 -2.191E-01
   1    8    6     9     1    0.0000E+00  0.0000E+00   0.0000E+00  0.000E+00  0.000E+00  0.000E+00  1.07875E+03  0.000E+00  4.000E+00  0.000E+00  1.000E+00
   1    8    5     9     2    0.0000E+00  0.0000E+00   0.0000E+00  0.000E+00  0.000E+00  0.000E+00  1.07825E+03  0.000E+00  4.000E+00  0.000E+00  1.000E+00





UNSATURATED ZONE PACKAGE VOLUMETRIC BUDGET FOR  TIME STEP    30 STRESS PERIOD   39
  ------------------------------------------------------------------------------



     CUMULATIVE VOLUMES      L**3       RATES FOR THIS TIME STEP      L**3/T
     ------------------                 ------------------------

           IN:                                      IN:
           ---                                      ---
        INFILTRATION =  1631533408.9978          INFILTRATION =           4.4075

          OUT:                                     OUT:
          ----                                     ----
              UZF ET =  1495373452.4611                UZF ET =           0.7250
        UZF RECHARGE =     1190491.9785          UZF RECHARGE =           0.0179

            IN - OUT =   134969464.5583              IN - OUT =           3.6646

          STORAGE:                                 STORAGE:
          --------                                 --------
      STORAGE CHANGE =   134970431.7288        STORAGE CHANGE =           3.6646

 PERCENT DISCREPANCY IS DIFFERENCE BETWEEN IN-OUT MINUS CHANGE IN STORAGE
 DIVIDED BY THE AVERAGE OF IN AND OUT TIMES 100

 PERCENT DISCREPANCY =          -0.00     PERCENT DISCREPANCY =           0.00






1
  VOLUMETRIC BUDGET FOR AGRICULTURAL FIELDS AT TIME STEP   30, STRESS PERIOD  39
  ------------------------------------------------------------------------------

     CUMULATIVE VOLUMES      L**3       RATES FOR THIS TIME STEP      L**3/T
     ------------------                 ------------------------

           IN:                                      IN:
           ---                                      ---
               AG WELLS  =   218905344.0000                 AG WELLS  =           0.0000
      DIVERSION SEGMENTS =   972051904.0000        DIVERSION SEGMENTS =           0.0000
           GW IRRIGATION =           0.0000             GW IRRIGATION =           0.0000
           SW IRRIGATION =           0.0000             SW IRRIGATION =           0.0000
        SYSTEM LOSSES GW =           0.0000          SYSTEM LOSSES GW =           0.0000
        SYSTEM LOSSES SW =           0.0000          SYSTEM LOSSES SW =           0.0000

                TOTAL IN =  1190957312.0000                  TOTAL IN =           0.0000

          OUT:                                     OUT:
          ----                                     ----
               AG WELLS  =           0.0000                 AG WELLS  =           0.0000
      DIVERSION SEGMENTS =           0.0000        DIVERSION SEGMENTS =           0.0000
           GW IRRIGATION =   218905344.0000             GW IRRIGATION =           0.0000
           SW IRRIGATION =   972071424.0000             SW IRRIGATION =           0.0000
        SYSTEM LOSSES GW =           0.0000          SYSTEM LOSSES GW =           0.0000
        SYSTEM LOSSES SW =           0.0000          SYSTEM LOSSES SW =           0.0000

               TOTAL OUT =  1190976768.0000                 TOTAL OUT =           0.0000

                IN - OUT =      -19456.0000                  IN - OUT =           0.0000

     PERCENT DISCREPANCY =          -0.00         PERCENT DISCREPANCY =           0.00



1
  VOLUMETRIC BUDGET FOR ENTIRE MODEL AT END OF TIME STEP   30, STRESS PERIOD  39
  ------------------------------------------------------------------------------

     CUMULATIVE VOLUMES      L**3       RATES FOR THIS TIME STEP      L**3/T
     ------------------                 ------------------------

           IN:                                      IN:
           ---                                      ---
             STORAGE     =   377798400.0000               STORAGE     =           0.6092
       CONSTANT HEAD     =           0.0000         CONSTANT HEAD     =           0.0000
     HEAD DEP BOUNDS     =    28592580.0000       HEAD DEP BOUNDS     =           0.2862
      STREAM LEAKAGE     =  1188972160.0000        STREAM LEAKAGE     =          12.1449
        UZF RECHARGE     =     1190492.0000          UZF RECHARGE     =       1.7903E-02
               GW ET     =           0.0000                 GW ET     =           0.0000
     SURFACE LEAKAGE     =           0.0000       SURFACE LEAKAGE     =           0.0000
           AG WELLS      =           0.0000             AG WELLS      =           0.0000

                TOTAL IN =  1596553600.0000                  TOTAL IN =          13.0582

          OUT:                                     OUT:
          ----                                     ----
             STORAGE     =   262618544.0000               STORAGE     =           3.2148
       CONSTANT HEAD     =           0.0000         CONSTANT HEAD     =           0.0000
     HEAD DEP BOUNDS     =    29065140.0000       HEAD DEP BOUNDS     =           0.2890
      STREAM LEAKAGE     =  1082622848.0000        STREAM LEAKAGE     =           9.5544
        UZF RECHARGE     =           0.0000          UZF RECHARGE     =           0.0000
               GW ET     =     3295915.0000                 GW ET     =           0.0000
     SURFACE LEAKAGE     =           0.0000       SURFACE LEAKAGE     =           0.0000
           AG WELLS      =   218905344.0000             AG WELLS      =           0.0000

               TOTAL OUT =  1596507776.0000                 TOTAL OUT =          13.0582

                IN - OUT =       45824.0000                  IN - OUT =      -2.0981E-05

     PERCENT DISCREPANCY =           0.00         PERCENT DISCREPANCY =          -0.00






         TIME SUMMARY AT END OF TIME STEP   30 IN STRESS PERIOD   39
                    SECONDS     MINUTES      HOURS       DAYS        YEARS
                    -----------------------------------------------------------
   TIME STEP LENGTH  87667.      1461.1      24.352      1.0147     2.77799E-03
 STRESS PERIOD TIME 2.63000E+06  43833.      730.56      30.440     8.33397E-02
         TOTAL TIME 1.00026E+08 1.66710E+06  27785.      1157.7      3.1696    
1
1
                            STRESS PERIOD NO.   40, LENGTH =   2630000.    
                            -----------------------------------------------

                              NUMBER OF TIME STEPS =    30

                               MULTIPLIER FOR DELT =     1.000

                            INITIAL TIME STEP SIZE =   87666.66    

 REUSING NON-PARAMETER GHB CELLS FROM LAST STRESS PERIOD

      2 GHB CELLS

 REUSING STREAM SEGMENT DATA FROM LAST STRESS PERIOD



            AREAL INFILTRATION RATE
 READING ON UNIT   19 WITH FORMAT: (10F4.0)            

            1           2           3           4           5           6           7           8           9          10
 ........................................................................................................................
   1   1.2000E-09   0.000       0.000       0.000       0.000       0.000       0.000       0.000       0.000       0.000    
   2   2.1000E-09  2.0000E-09  8.0000E-10  8.5000E-09   0.000       0.000       0.000       0.000       0.000       0.000    
   3   5.0000E-10  1.1000E-09  8.8000E-09  5.5000E-09   0.000       0.000       0.000       0.000       0.000       0.000    
   4   8.5000E-09  1.1000E-09  1.1000E-09  1.1000E-09  2.0000E-09   0.000       0.000       0.000       0.000       0.000    
   5   8.5000E-09  1.1000E-09  1.1000E-09  1.1000E-09  1.1000E-09   0.000       0.000       0.000       0.000       0.000    
   6   8.5000E-09  5.2000E-09  2.1000E-09  1.1000E-09  1.5000E-09   0.000       0.000       0.000       0.000       0.000    
   7   8.5000E-09  5.2000E-09  2.1000E-09  1.2000E-09  2.0000E-09   0.000       0.000       0.000       0.000       0.000    
   8   5.0000E-10  5.2000E-09  2.1000E-09  1.2000E-09  5.0000E-09   0.000       0.000       0.000       0.000       0.000    
   9   5.0000E-10  5.2000E-09  2.1000E-09  1.2000E-09  5.0000E-09   0.000       0.000       0.000       0.000       0.000    
  10   5.0000E-10  5.2000E-09  2.1000E-09  1.2000E-09  5.8000E-09   0.000       0.000       0.000       0.000       0.000    
  11   1.0000E-10  1.1000E-09  1.1000E-09  1.2000E-09  5.0000E-09   0.000       0.000       0.000       0.000       0.000    
  12   1.1000E-09  1.1000E-09  1.1000E-09  1.1000E-09  2.0000E-09   0.000       0.000       0.000       0.000       0.000    
  13   1.1000E-09  2.2000E-09  2.2000E-09  2.1000E-09  1.0000E-09   0.000       0.000       0.000       0.000       0.000    
  14   2.0000E-10  5.5000E-09  5.5000E-09  5.2000E-09  1.0000E-09   0.000       0.000       0.000       0.000       0.000    
  15    0.000      8.8000E-09  8.8000E-09   0.000       0.000       0.000       0.000       0.000       0.000       0.000    

                  ET RATE =  5.000000E-10

 USING ET EXTINCTION DEPTH FROM PREVIOUS STRESS PERIOD. CURRENT PERIOD IS:      40

 USING EXTINCTION WATER CONTENT FROM PREVIOUS STRESS PERIOD. CURRENT PERIOD IS:      40

 USING AIR ENTRY PRESSURE FROM PREVIOUS STRESS PERIOD. CURRENT PERIOD IS:      40

 USING ROOT PRESSURE HEAD FROM PREVIOUS STRESS PERIOD. CURRENT PERIOD IS:      40

 USING ROOT ACTIVITY FROM PREVIOUS STRESS PERIOD. CURRENT PERIOD IS:      40

 PROCESSING AG STRESS PERIOD DATA

 READING AG STRESS PERIOD DATA

 READING IRRIGATION SEGMENT

 READING IRRIGATION WELL

 READING SUPPLEMENTAL WELL

 END PROCESSING AG STRESS PERIOD DATA OPTIONS
 
 SOLVING FOR HEAD 
                                                   Max.-Head-Change                         Max.-Flux-Residual
  Residual-Control   Outer-Iter.   Inner-Iter.     Column Row Layer    Maximum-Head-Change  Column Row Layer    Maximum-Flux-Residual          L2-NORM 
          0                 1           2             4   13     1       0.2197803500E-01       4   13    1         0.1267919971E+01      0.2327196128E+01
          0                 2           2             3   13     1       0.2650517667E-02       3   13    1         0.1558563478E+00      0.2503369416E+00
          0                 3           2             3   13     1       0.3348884947E-03       3   13    1         0.1926530743E-01      0.2359096648E-01
          0                 4           1             3   13     1       0.4319644381E-04       3   13    1         0.2509889373E-02      0.2557520900E-02

    ------------------------------------------------
       NWT REQUIRED            4 OUTER ITERATIONS 
       AND A TOTAL OF          7 INNER ITERATIONS.
    ------------------------------------------------

 NO OUTPUT CONTROL FOR STRESS PERIOD   40   TIME STEP    1
 
 SOLVING FOR HEAD 
                                                   Max.-Head-Change                         Max.-Flux-Residual
  Residual-Control   Outer-Iter.   Inner-Iter.     Column Row Layer    Maximum-Head-Change  Column Row Layer    Maximum-Flux-Residual          L2-NORM 
          0                 1           2             4   13     1       0.1985579467E-01       4   13    1         0.1145171258E+01      0.2138671594E+01
          0                 2           2             3   13     1       0.2389650719E-02       3   13    1         0.1385690779E+00      0.2170173999E+00
          0                 3           2             3   13     1       0.3113075557E-03       3   13    1         0.1787483664E-01      0.2343037899E-01
          0                 4           1             3   13     1       0.4055972417E-04       3   13    1         0.2339545879E-02      0.2765391288E-02

    ------------------------------------------------
       NWT REQUIRED            4 OUTER ITERATIONS 
       AND A TOTAL OF          7 INNER ITERATIONS.
    ------------------------------------------------

 NO OUTPUT CONTROL FOR STRESS PERIOD   40   TIME STEP    2
 
 SOLVING FOR HEAD 
                                                   Max.-Head-Change                         Max.-Flux-Residual
  Residual-Control   Outer-Iter.   Inner-Iter.     Column Row Layer    Maximum-Head-Change  Column Row Layer    Maximum-Flux-Residual          L2-NORM 
          0                 1           2             4   13     1       0.1821627356E-01       4   13    1         0.1050382137E+01      0.1980367423E+01
          0                 2           2             4   13     1       0.2312886054E-02       4   13    1         0.1339382878E+00      0.2271369720E+00
          0                 3           2             4   13     1       0.2939084632E-03       4   13    1         0.1695864171E-01      0.2542005843E-01
          0                 4           1             4   13     1       0.3739424665E-04       4   13    1         0.2160037348E-02      0.3061001096E-02

    ------------------------------------------------
       NWT REQUIRED            4 OUTER ITERATIONS 
       AND A TOTAL OF          7 INNER ITERATIONS.
    ------------------------------------------------

 NO OUTPUT CONTROL FOR STRESS PERIOD   40   TIME STEP    3
 
 SOLVING FOR HEAD 
                                                   Max.-Head-Change                         Max.-Flux-Residual
  Residual-Control   Outer-Iter.   Inner-Iter.     Column Row Layer    Maximum-Head-Change  Column Row Layer    Maximum-Flux-Residual          L2-NORM 
          0                 1           2             2   13     1       0.1677262123E-01       2   13    1         0.9498236195E+00      0.1816013781E+01
          0                 2           2             4   13     1       0.2027472484E-02       4   13    1         0.1174555852E+00      0.2063860351E+00
          0                 3           2             4   13     1       0.2569207093E-03       4   13    1         0.1481712823E-01      0.2269994553E-01
          0                 4           1             3   13     1       0.3338585302E-04       3   13    1         0.1918776541E-02      0.2708643765E-02

    ------------------------------------------------
       NWT REQUIRED            4 OUTER ITERATIONS 
       AND A TOTAL OF          7 INNER ITERATIONS.
    ------------------------------------------------

 NO OUTPUT CONTROL FOR STRESS PERIOD   40   TIME STEP    4
 
 SOLVING FOR HEAD 
                                                   Max.-Head-Change                         Max.-Flux-Residual
  Residual-Control   Outer-Iter.   Inner-Iter.     Column Row Layer    Maximum-Head-Change  Column Row Layer    Maximum-Flux-Residual          L2-NORM 
          0                 1           2             2   13     1       0.1547666527E-01       2   13    1         0.8765229976E+00      0.1671942832E+01
          0                 2           2             4   13     1       0.1780731194E-02       4   13    1         0.1032048355E+00      0.1884284193E+00
          0                 3           2             4   13     1       0.2256952370E-03       4   13    1         0.1301019574E-01      0.2035077318E-01
          0                 4           1             3   13     1       0.2977757053E-04       3   13    1         0.1711784498E-02      0.2401320959E-02

    ------------------------------------------------
       NWT REQUIRED            4 OUTER ITERATIONS 
       AND A TOTAL OF          7 INNER ITERATIONS.
    ------------------------------------------------

 NO OUTPUT CONTROL FOR STRESS PERIOD   40   TIME STEP    5
 
 SOLVING FOR HEAD 
                                                   Max.-Head-Change                         Max.-Flux-Residual
  Residual-Control   Outer-Iter.   Inner-Iter.     Column Row Layer    Maximum-Head-Change  Column Row Layer    Maximum-Flux-Residual          L2-NORM 
          0                 1           2             2   13     1       0.1427625744E-01       2   13    1         0.8086016348E+00      0.1545702069E+01
          0                 2           2             4   13     1       0.1561444757E-02       4   13    1         0.9053630432E-01      0.1726352091E+00
          0                 3           2             3   13     1       0.2019849725E-03       3   13    1         0.1154740532E-01      0.1832286673E-01
          0                 4           1             3   13     1       0.2676779901E-04       3   13    1         0.1539155539E-02      0.2142327355E-02

    ------------------------------------------------
       NWT REQUIRED            4 OUTER ITERATIONS 
       AND A TOTAL OF          7 INNER ITERATIONS.
    ------------------------------------------------

 NO OUTPUT CONTROL FOR STRESS PERIOD   40   TIME STEP    6
 
 SOLVING FOR HEAD 
                                                   Max.-Head-Change                         Max.-Flux-Residual
  Residual-Control   Outer-Iter.   Inner-Iter.     Column Row Layer    Maximum-Head-Change  Column Row Layer    Maximum-Flux-Residual          L2-NORM 
          0                 1           2             2   13     1       0.1316525934E-01       2   13    1         0.7457199166E+00      0.1434971247E+01
          0                 2           2             4   13     1       0.1374870058E-02       4   13    1         0.7976183842E-01      0.1588620097E+00
          0                 3           2             3   13     1       0.1802010745E-03       3   13    1         0.1030114257E-01      0.1651107748E-01
          0                 4           1             3   13     1       0.2390324022E-04       3   13    1         0.1374740084E-02      0.1903836926E-02

    ------------------------------------------------
       NWT REQUIRED            4 OUTER ITERATIONS 
       AND A TOTAL OF          7 INNER ITERATIONS.
    ------------------------------------------------

 NO OUTPUT CONTROL FOR STRESS PERIOD   40   TIME STEP    7
 
 SOLVING FOR HEAD 
                                                   Max.-Head-Change                         Max.-Flux-Residual
  Residual-Control   Outer-Iter.   Inner-Iter.     Column Row Layer    Maximum-Head-Change  Column Row Layer    Maximum-Flux-Residual          L2-NORM 
          0                 1           2             2   13     1       0.1213765383E-01       2   13    1         0.6875420941E+00      0.1337821746E+01
          0                 2           2             3   13     1       0.1218894437E-02       3   13    1         0.7059246465E-01      0.1469050681E+00
          0                 3           2             3   13     1       0.1617322795E-03       3   13    1         0.9244830082E-02      0.1497447414E-01
          0                 4           1             3   13     1       0.2145274338E-04       3   13    1         0.1234033049E-02      0.1703366554E-02

    ------------------------------------------------
       NWT REQUIRED            4 OUTER ITERATIONS 
       AND A TOTAL OF          7 INNER ITERATIONS.
    ------------------------------------------------

 NO OUTPUT CONTROL FOR STRESS PERIOD   40   TIME STEP    8
 
 SOLVING FOR HEAD 
                                                   Max.-Head-Change                         Max.-Flux-Residual
  Residual-Control   Outer-Iter.   Inner-Iter.     Column Row Layer    Maximum-Head-Change  Column Row Layer    Maximum-Flux-Residual          L2-NORM 
          0                 1           2             2   13     1       0.1118788195E-01       2   13    1         0.6337576625E+00      0.1252529250E+01
          0                 2           2             3   13     1       0.1088976151E-02       3   13    1         0.6310603420E-01      0.1363316475E+00
          0                 3           2             3   13     1       0.1444024157E-03       3   13    1         0.8253198798E-02      0.1357852645E-01
          0                 4           1             3   13     1       0.1913704977E-04       3   13    1         0.1101019060E-02      0.1517020500E-02

    ------------------------------------------------
       NWT REQUIRED            4 OUTER ITERATIONS 
       AND A TOTAL OF          7 INNER ITERATIONS.
    ------------------------------------------------

 NO OUTPUT CONTROL FOR STRESS PERIOD   40   TIME STEP    9
 
 SOLVING FOR HEAD 
                                                   Max.-Head-Change                         Max.-Flux-Residual
  Residual-Control   Outer-Iter.   Inner-Iter.     Column Row Layer    Maximum-Head-Change  Column Row Layer    Maximum-Flux-Residual          L2-NORM 
          0                 1           2             2   13     1       0.1031050393E-01       2   13    1         0.5840615673E+00      0.1177552581E+01
          0                 2           2             3   13     1       0.9738498060E-03       3   13    1         0.5646933282E-01      0.1270825686E+00
          0                 3           2             3   13     1       0.1294060287E-03       3   13    1         0.7395164057E-02      0.1238246671E-01
          0                 4           1             3   13     1       0.1721088972E-04       3   13    1         0.9903988139E-03      0.1360128248E-02

    ------------------------------------------------
       NWT REQUIRED            4 OUTER ITERATIONS 
       AND A TOTAL OF          7 INNER ITERATIONS.
    ------------------------------------------------

 NO OUTPUT CONTROL FOR STRESS PERIOD   40   TIME STEP   10
 
 SOLVING FOR HEAD 
                                                   Max.-Head-Change                         Max.-Flux-Residual
  Residual-Control   Outer-Iter.   Inner-Iter.     Column Row Layer    Maximum-Head-Change  Column Row Layer    Maximum-Flux-Residual          L2-NORM 
          0                 1           2             2   13     1       0.9500388413E-02       2   13    1         0.5381659984E+00      0.1111602764E+01
          0                 2           2             2   13     1      -0.8772061487E-03       2   13    1        -0.5179627611E-01      0.1190569382E+00
          0                 3           2             3   13     1       0.1158509523E-03       3   13    1         0.6619514191E-02      0.1132319480E-01
          0                 4           1             3   13     1       0.1538140398E-04       3   13    1         0.8852612409E-03      0.1215470084E-02

    ------------------------------------------------
       NWT REQUIRED            4 OUTER ITERATIONS 
       AND A TOTAL OF          7 INNER ITERATIONS.
    ------------------------------------------------

 NO OUTPUT CONTROL FOR STRESS PERIOD   40   TIME STEP   11
 
 SOLVING FOR HEAD 
                                                   Max.-Head-Change                         Max.-Flux-Residual
  Residual-Control   Outer-Iter.   Inner-Iter.     Column Row Layer    Maximum-Head-Change  Column Row Layer    Maximum-Flux-Residual          L2-NORM 
          0                 1           2             2   13     1       0.8752798883E-02       2   13    1         0.4958051740E+00      0.1053525207E+01
          0                 2           2             2   13     1      -0.8092600090E-03       2   13    1        -0.4776314406E-01      0.1119414898E+00
          0                 3           1             3   13     1       0.1035363635E-03       3   13    1         0.5914742041E-02      0.1038404720E-01
          0                 4           1             3   13     1       0.1373770884E-04       3   13    1         0.7908057241E-03      0.1085753913E-02

    ------------------------------------------------
       NWT REQUIRED            4 OUTER ITERATIONS 
       AND A TOTAL OF          6 INNER ITERATIONS.
    ------------------------------------------------

 NO OUTPUT CONTROL FOR STRESS PERIOD   40   TIME STEP   12
 
 SOLVING FOR HEAD 
                                                   Max.-Head-Change                         Max.-Flux-Residual
  Residual-Control   Outer-Iter.   Inner-Iter.     Column Row Layer    Maximum-Head-Change  Column Row Layer    Maximum-Flux-Residual          L2-NORM 
          0                 1           2             2   13     1       0.8063260798E-02       2   13    1         0.4567273820E+00      0.1002337282E+01
          0                 2           2             2   13     1      -0.7463949699E-03       2   13    1        -0.4403358543E-01      0.1057161704E+00
          0                 3           1             3   13     1       0.9253913779E-04       3   13    1         0.5285333271E-02      0.9563379669E-02

    ------------------------------------------------
       NWT REQUIRED            3 OUTER ITERATIONS 
       AND A TOTAL OF          5 INNER ITERATIONS.
    ------------------------------------------------

 NO OUTPUT CONTROL FOR STRESS PERIOD   40   TIME STEP   13
 
 SOLVING FOR HEAD 
                                                   Max.-Head-Change                         Max.-Flux-Residual
  Residual-Control   Outer-Iter.   Inner-Iter.     Column Row Layer    Maximum-Head-Change  Column Row Layer    Maximum-Flux-Residual          L2-NORM 
          0                 1           2             2   13     1       0.7427064518E-02       2   13    1         0.4206666394E+00      0.9571810050E+00
          0                 2           2             2   13     1      -0.6882510912E-03       2   13    1        -0.4058639811E-01      0.1003162369E+00
          0                 3           1             3   13     1       0.8317089414E-04       3   13    1         0.4749207528E-02      0.8874903484E-02

    ------------------------------------------------
       NWT REQUIRED            3 OUTER ITERATIONS 
       AND A TOTAL OF          5 INNER ITERATIONS.
    ------------------------------------------------

 NO OUTPUT CONTROL FOR STRESS PERIOD   40   TIME STEP   14
 
 SOLVING FOR HEAD 
                                                   Max.-Head-Change                         Max.-Flux-Residual
  Residual-Control   Outer-Iter.   Inner-Iter.     Column Row Layer    Maximum-Head-Change  Column Row Layer    Maximum-Flux-Residual          L2-NORM 
          0                 1           2             2   13     1       0.6840835986E-02       2   13    1         0.3874343277E+00      0.9172541756E+00
          0                 2           2             2   13     1      -0.6345759710E-03       2   13    1        -0.3740562738E-01      0.9556209385E-01
          0                 3           1             3   13     1       0.7458604917E-04       3   13    1         0.4257914286E-02      0.8259132558E-02

    ------------------------------------------------
       NWT REQUIRED            3 OUTER ITERATIONS 
       AND A TOTAL OF          5 INNER ITERATIONS.
    ------------------------------------------------

 NO OUTPUT CONTROL FOR STRESS PERIOD   40   TIME STEP   15
 
 SOLVING FOR HEAD 
                                                   Max.-Head-Change                         Max.-Flux-Residual
  Residual-Control   Outer-Iter.   Inner-Iter.     Column Row Layer    Maximum-Head-Change  Column Row Layer    Maximum-Flux-Residual          L2-NORM 
          0                 1           2             1   13     1       0.6321191257E-02       2   13    1         0.3568095494E+00      0.8819029804E+00
          0                 2           2             1   13     1      -0.5969391736E-03       2   13    1        -0.3446997180E-01      0.9136663229E-01
          0                 3           1             3   13     1       0.6683251667E-04       3   13    1         0.3814151685E-02      0.7719273110E-02

    ------------------------------------------------
       NWT REQUIRED            3 OUTER ITERATIONS 
       AND A TOTAL OF          5 INNER ITERATIONS.
    ------------------------------------------------

 NO OUTPUT CONTROL FOR STRESS PERIOD   40   TIME STEP   16
 
 SOLVING FOR HEAD 
                                                   Max.-Head-Change                         Max.-Flux-Residual
  Residual-Control   Outer-Iter.   Inner-Iter.     Column Row Layer    Maximum-Head-Change  Column Row Layer    Maximum-Flux-Residual          L2-NORM 
          0                 1           2             1   13     1       0.6020052148E-02       1   13    1         0.3288764545E+00      0.8505362207E+00
          0                 2           2             1   13     1      -0.5691762164E-03       1   13    1        -0.3196956315E-01      0.8768059412E-01
          0                 3           1             3   13     1       0.5993473634E-04       3   13    1         0.3419375234E-02      0.7251308281E-02

    ------------------------------------------------
       NWT REQUIRED            3 OUTER ITERATIONS 
       AND A TOTAL OF          5 INNER ITERATIONS.
    ------------------------------------------------

 NO OUTPUT CONTROL FOR STRESS PERIOD   40   TIME STEP   17
 
 SOLVING FOR HEAD 
                                                   Max.-Head-Change                         Max.-Flux-Residual
  Residual-Control   Outer-Iter.   Inner-Iter.     Column Row Layer    Maximum-Head-Change  Column Row Layer    Maximum-Flux-Residual          L2-NORM 
          0                 1           2             1   13     1       0.5731356438E-02       1   13    1         0.3131690740E+00      0.8226656372E+00
          0                 2           2             1   13     1      -0.5424746123E-03       1   13    1        -0.3047595841E-01      0.8443664574E-01
          0                 3           1             3   13     1       0.5378809313E-04       3   13    1         0.3067598272E-02      0.6845212036E-02

    ------------------------------------------------
       NWT REQUIRED            3 OUTER ITERATIONS 
       AND A TOTAL OF          5 INNER ITERATIONS.
    ------------------------------------------------

 NO OUTPUT CONTROL FOR STRESS PERIOD   40   TIME STEP   18
 
 SOLVING FOR HEAD 
                                                   Max.-Head-Change                         Max.-Flux-Residual
  Residual-Control   Outer-Iter.   Inner-Iter.     Column Row Layer    Maximum-Head-Change  Column Row Layer    Maximum-Flux-Residual          L2-NORM 
          0                 1           2             1   13     1       0.5454799909E-02       1   13    1         0.2981158428E+00      0.7978262356E+00
          0                 2           2             1   13     1      -0.5168270217E-03       1   13    1        -0.2904068986E-01      0.8157530283E-01
          0                 3           1             3   13     1       0.4830310380E-04       3   13    1         0.2753693258E-02      0.6493296597E-02

    ------------------------------------------------
       NWT REQUIRED            3 OUTER ITERATIONS 
       AND A TOTAL OF          5 INNER ITERATIONS.
    ------------------------------------------------

 NO OUTPUT CONTROL FOR STRESS PERIOD   40   TIME STEP   19
 
 SOLVING FOR HEAD 
                                                   Max.-Head-Change                         Max.-Flux-Residual
  Residual-Control   Outer-Iter.   Inner-Iter.     Column Row Layer    Maximum-Head-Change  Column Row Layer    Maximum-Flux-Residual          L2-NORM 
          0                 1           2             1   13     1       0.5190103530E-02       1   13    1         0.2837024549E+00      0.7756513543E+00
          0                 2           2             1   13     1      -0.4922082332E-03       1   13    1        -0.2766245414E-01      0.7904573811E-01
          0                 3           1             3   13     1       0.4340328990E-04       3   13    1         0.2473249092E-02      0.6189050995E-02

    ------------------------------------------------
       NWT REQUIRED            3 OUTER ITERATIONS 
       AND A TOTAL OF          5 INNER ITERATIONS.
    ------------------------------------------------

 NO OUTPUT CONTROL FOR STRESS PERIOD   40   TIME STEP   20
 
 SOLVING FOR HEAD 
                                                   Max.-Head-Change                         Max.-Flux-Residual
  Residual-Control   Outer-Iter.   Inner-Iter.     Column Row Layer    Maximum-Head-Change  Column Row Layer    Maximum-Flux-Residual          L2-NORM 
          0                 1           2             1   13     1       0.4936861717E-02       1   13    1         0.2699075904E+00      0.7557977140E+00
          0                 2           2             2    2     1      -0.4783380307E-03       1   13    1        -0.2634055290E-01      0.7681209133E-01
          0                 3           1             3   13     1       0.3909374581E-04       3   13    1         0.2226603901E-02      0.5927909360E-02

    ------------------------------------------------
       NWT REQUIRED            3 OUTER ITERATIONS 
       AND A TOTAL OF          5 INNER ITERATIONS.
    ------------------------------------------------

 NO OUTPUT CONTROL FOR STRESS PERIOD   40   TIME STEP   21
 
 SOLVING FOR HEAD 
                                                   Max.-Head-Change                         Max.-Flux-Residual
  Residual-Control   Outer-Iter.   Inner-Iter.     Column Row Layer    Maximum-Head-Change  Column Row Layer    Maximum-Flux-Residual          L2-NORM 
          0                 1           2             2    2     1       0.4883434303E-02       1   13    1         0.2567160551E+00      0.7379866441E+00
          0                 2           2             2    2     1      -0.4750262016E-03       2    2    1        -0.2551379954E-01      0.7482441312E-01
          0                 3           1             3   13     1       0.3539184463E-04       3   13    1         0.2014967400E-02      0.5700584085E-02

    ------------------------------------------------
       NWT REQUIRED            3 OUTER ITERATIONS 
       AND A TOTAL OF          5 INNER ITERATIONS.
    ------------------------------------------------

 NO OUTPUT CONTROL FOR STRESS PERIOD   40   TIME STEP   22
 
 SOLVING FOR HEAD 
                                                   Max.-Head-Change                         Max.-Flux-Residual
  Residual-Control   Outer-Iter.   Inner-Iter.     Column Row Layer    Maximum-Head-Change  Column Row Layer    Maximum-Flux-Residual          L2-NORM 
          0                 1           2             2    2     1       0.4849804005E-02       2    2    1         0.2533673242E+00      0.7219603695E+00
          0                 2           2             2    2     1      -0.4717548680E-03       2    2    1        -0.2533681103E-01      0.7305162749E-01
          0                 3           1             2    2     1       0.3212474572E-04       3   13    1         0.1822014899E-02      0.5502047505E-02

    ------------------------------------------------
       NWT REQUIRED            3 OUTER ITERATIONS 
       AND A TOTAL OF          5 INNER ITERATIONS.
    ------------------------------------------------

 NO OUTPUT CONTROL FOR STRESS PERIOD   40   TIME STEP   23
 
 SOLVING FOR HEAD 
                                                   Max.-Head-Change                         Max.-Flux-Residual
  Residual-Control   Outer-Iter.   Inner-Iter.     Column Row Layer    Maximum-Head-Change  Column Row Layer    Maximum-Flux-Residual          L2-NORM 
          0                 1           2             2    2     1       0.4816670737E-02       2    2    1         0.2516236311E+00      0.7075053640E+00
          0                 2           2             2    2     1      -0.4685318827E-03       2    2    1        -0.2516244028E-01      0.7146259889E-01
          0                 3           1             2    2     1       0.3190527267E-04       2    2    1         0.1761370840E-02      0.5327876960E-02

    ------------------------------------------------
       NWT REQUIRED            3 OUTER ITERATIONS 
       AND A TOTAL OF          5 INNER ITERATIONS.
    ------------------------------------------------

 NO OUTPUT CONTROL FOR STRESS PERIOD   40   TIME STEP   24
 
 SOLVING FOR HEAD 
                                                   Max.-Head-Change                         Max.-Flux-Residual
  Residual-Control   Outer-Iter.   Inner-Iter.     Column Row Layer    Maximum-Head-Change  Column Row Layer    Maximum-Flux-Residual          L2-NORM 
          0                 1           2             2    2     1       0.4784026320E-02       2    2    1         0.2499057085E+00      0.6944297087E+00
          0                 2           2             2    2     1      -0.4653564506E-03       2    2    1        -0.2499064664E-01      0.7003700627E-01
          0                 3           1             2    2     1       0.3168903827E-04       2    2    1         0.1749345314E-02      0.5176211784E-02

    ------------------------------------------------
       NWT REQUIRED            3 OUTER ITERATIONS 
       AND A TOTAL OF          5 INNER ITERATIONS.
    ------------------------------------------------

 NO OUTPUT CONTROL FOR STRESS PERIOD   40   TIME STEP   25
 
 SOLVING FOR HEAD 
                                                   Max.-Head-Change                         Max.-Flux-Residual
  Residual-Control   Outer-Iter.   Inner-Iter.     Column Row Layer    Maximum-Head-Change  Column Row Layer    Maximum-Flux-Residual          L2-NORM 
          0                 1           2             2    2     1       0.4751863192E-02       2    2    1         0.2482131322E+00      0.6825716132E+00
          0                 2           2             2    2     1      -0.4622278340E-03       2    2    1        -0.2482138763E-01      0.6875469293E-01
          0                 3           1             2    2     1       0.3147599043E-04       2    2    1         0.1737497163E-02      0.5041994817E-02

    ------------------------------------------------
       NWT REQUIRED            3 OUTER ITERATIONS 
       AND A TOTAL OF          5 INNER ITERATIONS.
    ------------------------------------------------

 NO OUTPUT CONTROL FOR STRESS PERIOD   40   TIME STEP   26
 
 SOLVING FOR HEAD 
                                                   Max.-Head-Change                         Max.-Flux-Residual
  Residual-Control   Outer-Iter.   Inner-Iter.     Column Row Layer    Maximum-Head-Change  Column Row Layer    Maximum-Flux-Residual          L2-NORM 
          0                 1           2             2    2     1       0.4720086035E-02       2    2    1         0.2465409179E+00      0.6717820574E+00
          0                 2           2             2    2     1      -0.4591367628E-03       2    2    1        -0.2465416486E-01      0.6759698907E-01
          0                 3           1             2    2     1       0.3126550104E-04       2    2    1         0.1725791594E-02      0.4924529991E-02

    ------------------------------------------------
       NWT REQUIRED            3 OUTER ITERATIONS 
       AND A TOTAL OF          5 INNER ITERATIONS.
    ------------------------------------------------

 NO OUTPUT CONTROL FOR STRESS PERIOD   40   TIME STEP   27
 
 SOLVING FOR HEAD 
                                                   Max.-Head-Change                         Max.-Flux-Residual
  Residual-Control   Outer-Iter.   Inner-Iter.     Column Row Layer    Maximum-Head-Change  Column Row Layer    Maximum-Flux-Residual          L2-NORM 
          0                 1           2             2    2     1       0.4688775314E-02       2    2    1         0.2448933080E+00      0.6619445404E+00
          0                 2           2             2    2     1      -0.4560910640E-03       2    2    1        -0.2448940257E-01      0.6654849643E-01
          0                 3           1             2    2     1       0.3105810046E-04       2    2    1         0.1714258242E-02      0.4821291521E-02

    ------------------------------------------------
       NWT REQUIRED            3 OUTER ITERATIONS 
       AND A TOTAL OF          5 INNER ITERATIONS.
    ------------------------------------------------

 NO OUTPUT CONTROL FOR STRESS PERIOD   40   TIME STEP   28
 
 SOLVING FOR HEAD 
                                                   Max.-Head-Change                         Max.-Flux-Residual
  Residual-Control   Outer-Iter.   Inner-Iter.     Column Row Layer    Maximum-Head-Change  Column Row Layer    Maximum-Flux-Residual          L2-NORM 
          0                 1           2             2    2     1       0.4657924176E-02       2    2    1         0.2432698823E+00      0.6529402313E+00
          0                 2           2             2    2     1      -0.4530900695E-03       2    2    1        -0.2432705869E-01      0.6559464626E-01
          0                 3           1             2    2     1       0.3085374350E-04       2    2    1         0.1702894165E-02      0.4729322477E-02

    ------------------------------------------------
       NWT REQUIRED            3 OUTER ITERATIONS 
       AND A TOTAL OF          5 INNER ITERATIONS.
    ------------------------------------------------

 NO OUTPUT CONTROL FOR STRESS PERIOD   40   TIME STEP   29
 
 SOLVING FOR HEAD 
                                                   Max.-Head-Change                         Max.-Flux-Residual
  Residual-Control   Outer-Iter.   Inner-Iter.     Column Row Layer    Maximum-Head-Change  Column Row Layer    Maximum-Flux-Residual          L2-NORM 
          0                 1           2             2    2     1       0.4627524808E-02       2    2    1         0.2416702854E+00      0.6446850835E+00
          0                 2           2             2    2     1      -0.4501330212E-03       2    2    1        -0.2416709776E-01      0.6472552872E-01
          0                 3           1             2    2     1       0.3065237975E-04       2    2    1         0.1691696911E-02      0.4648358477E-02

    ------------------------------------------------
       NWT REQUIRED            3 OUTER ITERATIONS 
       AND A TOTAL OF          5 INNER ITERATIONS.
    ------------------------------------------------

 NO OUTPUT CONTROL FOR STRESS PERIOD   40   TIME STEP   30



 STREAM LISTING     PERIOD     40   STEP       30

 LAYER ROW COL. STREAM  RCH.  FLOW INTO     FLOW TO   FLOW OUT OF   OVRLND.     DIRECT     STREAM       STREAM     STREAM     STREAM   STREAMBED  STREAMBED
                SEG.NO.  NO.  STRM. RCH.    AQUIFER    STRM. RCH.    RUNOFF     PRECIP       ET          HEAD       DEPTH      WIDTH   CONDCTNC.   GRADIENT

   1    1    1     1     1    7.3498E+01  4.1744E-01   7.3080E+01  0.000E+00  0.000E+00  0.000E+00  1.09473E+03  1.681E+00  1.982E+01  8.917E-02  1.560E+00
   1    2    2     1     2    7.3080E+01  6.4665E-01   7.2434E+01  0.000E+00  0.000E+00  0.000E+00  1.08973E+03  1.675E+00  1.976E+01  1.383E-01  1.558E+00
   1    3    3     1     3    7.2434E+01  5.5165E-01   7.1882E+01  0.000E+00  0.000E+00  0.000E+00  1.08409E+03  1.669E+00  1.969E+01  1.182E-01  1.556E+00
   1    3    4     1     4    7.1882E+01  5.0813E-01   7.1374E+01  0.000E+00  0.000E+00  0.000E+00  1.07907E+03  1.663E+00  1.963E+01  1.090E-01  1.554E+00
   1    4    5     2     1    6.9374E+01  4.0746E-01   6.8966E+01  0.000E+00  0.000E+00  0.000E+00  1.07416E+03  2.224E+00  1.200E+01  7.800E-02  1.741E+00
   1    5    6     2     2    6.8966E+01  3.1301E-01   6.8653E+01  0.000E+00  0.000E+00  0.000E+00  1.06873E+03  2.217E+00  1.200E+01  6.000E-02  1.739E+00
   1    6    6     2     3    6.8653E+01  3.1265E-01   6.8341E+01  0.000E+00  0.000E+00  0.000E+00  1.06400E+03  2.211E+00  1.200E+01  6.000E-02  1.737E+00
   1    7    6     2     4    6.8341E+01  3.1228E-01   6.8028E+01  0.000E+00  0.000E+00  0.000E+00  1.05928E+03  2.205E+00  1.200E+01  6.000E-02  1.735E+00
   1    8    6     2     5    6.8028E+01  3.1192E-01   6.7717E+01  0.000E+00  0.000E+00  0.000E+00  1.05456E+03  2.199E+00  1.200E+01  6.000E-02  1.733E+00
   1    3    5     3     1    2.0000E+00  2.8252E-01   1.7175E+00  0.000E+00  0.000E+00  0.000E+00  1.07555E+03  1.909E+00  9.636E+00  7.227E-02  1.955E+00
   1    3    6     3     2    1.7175E+00  2.4905E-01   1.4684E+00  0.000E+00  0.000E+00  0.000E+00  1.07264E+03  1.727E+00  8.909E+00  6.682E-02  1.864E+00
   1    3    7     3     3    1.4684E+00  1.9718E-01   1.2712E+00  0.000E+00  0.000E+00  0.000E+00  1.06987E+03  1.555E+00  8.218E+00  5.547E-02  1.777E+00
   1    4    8     3     4    1.2712E+00  2.2567E-01   1.0456E+00  0.000E+00  0.000E+00  0.000E+00  1.06682E+03  1.364E+00  7.455E+00  6.709E-02  1.682E+00
   1    5    8     3     5    1.0456E+00  1.5790E-01   8.8768E-01  0.000E+00  0.000E+00  0.000E+00  1.06362E+03  1.164E+00  6.655E+00  4.991E-02  1.582E+00
   1    6    8     3     6    8.8768E-01  5.5980E-02   8.3170E-01  0.000E+00  0.000E+00  0.000E+00  1.06158E+03  1.036E+00  6.145E+00  1.844E-02  1.518E+00
   1    5   10     4     1    1.0000E+01  9.0919E-02   9.9091E+00  0.000E+00  0.000E+00  0.000E+00  1.07836E+03  6.368E-01  1.000E+01  2.500E-02  1.212E+00
   1    5    9     4     2    9.9091E+00  1.8158E-01   9.7275E+00  0.000E+00  0.000E+00  0.000E+00  1.07154E+03  6.315E-01  1.000E+01  5.000E-02  1.211E+00
   1    6    8     4     3    9.7275E+00  1.2689E-01   9.6006E+00  0.000E+00  0.000E+00  0.000E+00  1.06381E+03  6.256E-01  1.000E+01  3.500E-02  1.209E+00
   1    6    8     5     1    1.0432E+01  2.2686E-01   1.0205E+01  0.000E+00  0.000E+00  0.000E+00  1.05868E+03  6.790E-01  1.542E+01  6.166E-02  1.226E+00
   1    7    7     5     2    1.0205E+01  2.7894E-01   9.9265E+00  0.000E+00  0.000E+00  0.000E+00  1.05417E+03  6.732E-01  1.519E+01  7.594E-02  1.224E+00
   1    8    7     5     3    9.9265E+00  1.9221E-01   9.7343E+00  0.000E+00  0.000E+00  0.000E+00  1.04992E+03  6.676E-01  1.497E+01  5.241E-02  1.223E+00
   1    8    6     5     4    9.7343E+00  1.3577E-01   9.5985E+00  0.000E+00  0.000E+00  0.000E+00  1.04691E+03  6.637E-01  1.482E+01  3.706E-02  1.221E+00
   1    9    6     6     1    7.7315E+01  3.2406E-01   7.6991E+01  0.000E+00  0.000E+00  0.000E+00  1.04513E+03  2.401E+00  1.200E+01  6.000E-02  1.800E+00
   1   10    7     6     2    7.6991E+01  3.2369E-01   7.6667E+01  0.000E+00  0.000E+00  0.000E+00  1.04058E+03  2.395E+00  1.200E+01  6.000E-02  1.798E+00
   1   11    7     6     3    7.6667E+01  3.2333E-01   7.6344E+01  0.000E+00  0.000E+00  0.000E+00  1.03603E+03  2.389E+00  1.200E+01  6.000E-02  1.796E+00
   1   12    7     6     4    7.6344E+01  3.2297E-01   7.6021E+01  0.000E+00  0.000E+00  0.000E+00  1.03147E+03  2.383E+00  1.200E+01  6.000E-02  1.794E+00
   1   13    7     6     5    7.6021E+01  2.9351E-02   7.5992E+01  0.000E+00  0.000E+00  0.000E+00  1.02829E+03  2.379E+00  1.200E+01  2.400E-02  4.077E-01
   1   14    9     7     1    1.5000E+02  1.3426E+00   1.4866E+02  0.000E+00  0.000E+00  0.000E+00  1.03987E+03  2.288E+00  5.529E+01  5.593E-01  8.002E-01
   1   13    8     7     2    1.4866E+02  1.8463E+00   1.4681E+02  0.000E+00  0.000E+00  0.000E+00  1.03478E+03  2.279E+00  5.526E+01  6.148E-01  1.001E+00
   1   13    7     7     3    1.4681E+02  1.4654E+00   1.4535E+02  0.000E+00  0.000E+00  0.000E+00  1.02969E+03  2.270E+00  5.522E+01  5.584E-01  8.747E-01
   1   13    6     8     1    2.2134E+02  1.1263E+00   2.2021E+02  0.000E+00  0.000E+00  0.000E+00  1.02513E+03  3.256E+00  4.721E+01  4.811E-01  7.803E-01
   1   13    5     8     2    2.2021E+02  2.9264E-01   2.1992E+02  0.000E+00  0.000E+00  0.000E+00  1.01888E+03  3.252E+00  4.716E+01  4.806E-01  2.030E-01
   1   13    4     8     3    2.1992E+02 -2.2378E+00   2.2216E+02  0.000E+00  0.000E+00  0.000E+00  1.01263E+03  3.258E+00  4.724E+01  4.813E+00 -1.550E-01
   1   13    3     8     4    2.2216E+02 -3.5402E+00   2.2570E+02  0.000E+00  0.000E+00  0.000E+00  1.00640E+03  3.274E+00  4.747E+01  4.837E+00 -2.440E-01
   1   13    2     8     5    2.2570E+02 -2.4130E+00   2.2811E+02  0.000E+00  0.000E+00  0.000E+00  1.00016E+03  3.290E+00  4.770E+01  4.861E+00 -1.655E-01
   1   13    1     8     6    2.2811E+02 -1.8134E+00   2.2992E+02  0.000E+00  0.000E+00  0.000E+00  9.95176E+02  3.301E+00  4.787E+01  2.927E+00 -2.065E-01
   1    8    6     9     1    0.0000E+00  0.0000E+00   0.0000E+00  0.000E+00  0.000E+00  0.000E+00  1.07875E+03  0.000E+00  4.000E+00  0.000E+00  1.000E+00
   1    8    5     9     2    0.0000E+00  0.0000E+00   0.0000E+00  0.000E+00  0.000E+00  0.000E+00  1.07825E+03  0.000E+00  4.000E+00  0.000E+00  1.000E+00





UNSATURATED ZONE PACKAGE VOLUMETRIC BUDGET FOR  TIME STEP    30 STRESS PERIOD   40
  ------------------------------------------------------------------------------



     CUMULATIVE VOLUMES      L**3       RATES FOR THIS TIME STEP      L**3/T
     ------------------                 ------------------------

           IN:                                      IN:
           ---                                      ---
        INFILTRATION =  1643125133.5559          INFILTRATION =           4.4075

          OUT:                                     OUT:
          ----                                     ----
              UZF ET =  1497280202.3296                UZF ET =           0.7250
        UZF RECHARGE =     1868971.3085          UZF RECHARGE =           0.1114

            IN - OUT =   143975959.9178              IN - OUT =           3.5711

          STORAGE:                                 STORAGE:
          --------                                 --------
      STORAGE CHANGE =   143977419.2706        STORAGE CHANGE =           3.5712

 PERCENT DISCREPANCY IS DIFFERENCE BETWEEN IN-OUT MINUS CHANGE IN STORAGE
 DIVIDED BY THE AVERAGE OF IN AND OUT TIMES 100

 PERCENT DISCREPANCY =          -0.00     PERCENT DISCREPANCY =          -0.00






1
  VOLUMETRIC BUDGET FOR AGRICULTURAL FIELDS AT TIME STEP   30, STRESS PERIOD  40
  ------------------------------------------------------------------------------

     CUMULATIVE VOLUMES      L**3       RATES FOR THIS TIME STEP      L**3/T
     ------------------                 ------------------------

           IN:                                      IN:
           ---                                      ---
               AG WELLS  =   218905344.0000                 AG WELLS  =           0.0000
      DIVERSION SEGMENTS =   972051904.0000        DIVERSION SEGMENTS =           0.0000
           GW IRRIGATION =           0.0000             GW IRRIGATION =           0.0000
           SW IRRIGATION =           0.0000             SW IRRIGATION =           0.0000
        SYSTEM LOSSES GW =           0.0000          SYSTEM LOSSES GW =           0.0000
        SYSTEM LOSSES SW =           0.0000          SYSTEM LOSSES SW =           0.0000

                TOTAL IN =  1190957312.0000                  TOTAL IN =           0.0000

          OUT:                                     OUT:
          ----                                     ----
               AG WELLS  =           0.0000                 AG WELLS  =           0.0000
      DIVERSION SEGMENTS =           0.0000        DIVERSION SEGMENTS =           0.0000
           GW IRRIGATION =   218905344.0000             GW IRRIGATION =           0.0000
           SW IRRIGATION =   972071424.0000             SW IRRIGATION =           0.0000
        SYSTEM LOSSES GW =           0.0000          SYSTEM LOSSES GW =           0.0000
        SYSTEM LOSSES SW =           0.0000          SYSTEM LOSSES SW =           0.0000

               TOTAL OUT =  1190976768.0000                 TOTAL OUT =           0.0000

                IN - OUT =      -19456.0000                  IN - OUT =           0.0000

     PERCENT DISCREPANCY =          -0.00         PERCENT DISCREPANCY =           0.00



1
  VOLUMETRIC BUDGET FOR ENTIRE MODEL AT END OF TIME STEP   30, STRESS PERIOD  40
  ------------------------------------------------------------------------------

     CUMULATIVE VOLUMES      L**3       RATES FOR THIS TIME STEP      L**3/T
     ------------------                 ------------------------

           IN:                                      IN:
           ---                                      ---
             STORAGE     =   378945088.0000               STORAGE     =           0.3777
       CONSTANT HEAD     =           0.0000         CONSTANT HEAD     =           0.0000
     HEAD DEP BOUNDS     =    29345302.0000       HEAD DEP BOUNDS     =           0.2862
      STREAM LEAKAGE     =  1224803712.0000        STREAM LEAKAGE     =          13.5794
        UZF RECHARGE     =     1868971.6250          UZF RECHARGE     =           0.1114
               GW ET     =           0.0000                 GW ET     =           0.0000
     SURFACE LEAKAGE     =           0.0000       SURFACE LEAKAGE     =           0.0000
           AG WELLS      =           0.0000             AG WELLS      =           0.0000

                TOTAL IN =  1634963072.0000                  TOTAL IN =          14.3547

          OUT:                                     OUT:
          ----                                     ----
             STORAGE     =   276579680.0000               STORAGE     =           4.0549
       CONSTANT HEAD     =           0.0000         CONSTANT HEAD     =           0.0000
     HEAD DEP BOUNDS     =    29837258.0000       HEAD DEP BOUNDS     =           0.2962
      STREAM LEAKAGE     =  1106299520.0000        STREAM LEAKAGE     =          10.0043
        UZF RECHARGE     =           0.0000          UZF RECHARGE     =           0.0000
               GW ET     =     3295915.0000                 GW ET     =       1.1463E-12
     SURFACE LEAKAGE     =           0.0000       SURFACE LEAKAGE     =           0.0000
           AG WELLS      =   218905344.0000             AG WELLS      =           0.0000

               TOTAL OUT =  1634917632.0000                 TOTAL OUT =          14.3555

                IN - OUT =       45440.0000                  IN - OUT =      -7.8297E-04

     PERCENT DISCREPANCY =           0.00         PERCENT DISCREPANCY =          -0.01






         TIME SUMMARY AT END OF TIME STEP   30 IN STRESS PERIOD   40
                    SECONDS     MINUTES      HOURS       DAYS        YEARS
                    -----------------------------------------------------------
   TIME STEP LENGTH  87667.      1461.1      24.352      1.0147     2.77799E-03
 STRESS PERIOD TIME 2.63000E+06  43833.      730.56      30.440     8.33397E-02
         TOTAL TIME 1.02656E+08 1.71093E+06  28515.      1188.1      3.2530    
1
1
                            STRESS PERIOD NO.   41, LENGTH =   2630000.    
                            -----------------------------------------------

                              NUMBER OF TIME STEPS =    30

                               MULTIPLIER FOR DELT =     1.000

                            INITIAL TIME STEP SIZE =   87666.66    

 REUSING NON-PARAMETER GHB CELLS FROM LAST STRESS PERIOD

      2 GHB CELLS

 REUSING STREAM SEGMENT DATA FROM LAST STRESS PERIOD



            AREAL INFILTRATION RATE
 READING ON UNIT   19 WITH FORMAT: (10F4.0)            

            1           2           3           4           5           6           7           8           9          10
 ........................................................................................................................
   1   1.2000E-09   0.000       0.000       0.000       0.000       0.000       0.000       0.000       0.000       0.000    
   2   2.1000E-09  2.0000E-09  8.0000E-10  8.5000E-09   0.000       0.000       0.000       0.000       0.000       0.000    
   3   5.0000E-10  1.1000E-09  8.8000E-09  5.5000E-09   0.000       0.000       0.000       0.000       0.000       0.000    
   4   8.5000E-09  1.1000E-09  1.1000E-09  1.1000E-09  2.0000E-09   0.000       0.000       0.000       0.000       0.000    
   5   8.5000E-09  1.1000E-09  1.1000E-09  1.1000E-09  1.1000E-09   0.000       0.000       0.000       0.000       0.000    
   6   8.5000E-09  5.2000E-09  2.1000E-09  1.1000E-09  1.5000E-09   0.000       0.000       0.000       0.000       0.000    
   7   8.5000E-09  5.2000E-09  2.1000E-09  1.2000E-09  2.0000E-09   0.000       0.000       0.000       0.000       0.000    
   8   5.0000E-10  5.2000E-09  2.1000E-09  1.2000E-09  5.0000E-09   0.000       0.000       0.000       0.000       0.000    
   9   5.0000E-10  5.2000E-09  2.1000E-09  1.2000E-09  5.0000E-09   0.000       0.000       0.000       0.000       0.000    
  10   5.0000E-10  5.2000E-09  2.1000E-09  1.2000E-09  5.8000E-09   0.000       0.000       0.000       0.000       0.000    
  11   1.0000E-10  1.1000E-09  1.1000E-09  1.2000E-09  5.0000E-09   0.000       0.000       0.000       0.000       0.000    
  12   1.1000E-09  1.1000E-09  1.1000E-09  1.1000E-09  2.0000E-09   0.000       0.000       0.000       0.000       0.000    
  13   1.1000E-09  2.2000E-09  2.2000E-09  2.1000E-09  1.0000E-09   0.000       0.000       0.000       0.000       0.000    
  14   2.0000E-10  5.5000E-09  5.5000E-09  5.2000E-09  1.0000E-09   0.000       0.000       0.000       0.000       0.000    
  15    0.000      8.8000E-09  8.8000E-09   0.000       0.000       0.000       0.000       0.000       0.000       0.000    

                  ET RATE =  2.500000E-08

 USING ET EXTINCTION DEPTH FROM PREVIOUS STRESS PERIOD. CURRENT PERIOD IS:      41

 USING EXTINCTION WATER CONTENT FROM PREVIOUS STRESS PERIOD. CURRENT PERIOD IS:      41

 USING AIR ENTRY PRESSURE FROM PREVIOUS STRESS PERIOD. CURRENT PERIOD IS:      41

 USING ROOT PRESSURE HEAD FROM PREVIOUS STRESS PERIOD. CURRENT PERIOD IS:      41

 USING ROOT ACTIVITY FROM PREVIOUS STRESS PERIOD. CURRENT PERIOD IS:      41

 PROCESSING AG STRESS PERIOD DATA

 READING AG STRESS PERIOD DATA

 READING IRRIGATION SEGMENT

 READING IRRIGATION WELL

 READING SUPPLEMENTAL WELL

 END PROCESSING AG STRESS PERIOD DATA OPTIONS
 
 SOLVING FOR HEAD 
                                                   Max.-Head-Change                         Max.-Flux-Residual
  Residual-Control   Outer-Iter.   Inner-Iter.     Column Row Layer    Maximum-Head-Change  Column Row Layer    Maximum-Flux-Residual          L2-NORM 
          0                 1           2             2    2     1       0.4597482808E-02       2    2    1         0.2400895194E+00      0.6370952470E+00
          0                 2           2             2    2     1      -0.4472107350E-03       2    2    1        -0.2400901993E-01      0.6393048216E-01
          0                 3           1             2    2     1       0.3045338297E-04       2    2    1         0.1680631470E-02      0.4574995939E-02

    ------------------------------------------------
       NWT REQUIRED            3 OUTER ITERATIONS 
       AND A TOTAL OF          5 INNER ITERATIONS.
    ------------------------------------------------

 NO OUTPUT CONTROL FOR STRESS PERIOD   41   TIME STEP    1
 
 SOLVING FOR HEAD 
                                                   Max.-Head-Change                         Max.-Flux-Residual
  Residual-Control   Outer-Iter.   Inner-Iter.     Column Row Layer    Maximum-Head-Change  Column Row Layer    Maximum-Flux-Residual          L2-NORM 
          0                 1           2             2    2     1       0.4567966960E-02       2    2    1         0.2385364685E+00      0.6277442804E+00
          0                 2           2             2    2     1      -0.4443396305E-03       2    2    1        -0.2385371367E-01      0.6272606801E-01
          0                 3           1             2    2     1       0.3025787192E-04       2    2    1         0.1669760054E-02      0.4391502517E-02

    ------------------------------------------------
       NWT REQUIRED            3 OUTER ITERATIONS 
       AND A TOTAL OF          5 INNER ITERATIONS.
    ------------------------------------------------

 NO OUTPUT CONTROL FOR STRESS PERIOD   41   TIME STEP    2
 
 SOLVING FOR HEAD 
                                                   Max.-Head-Change                         Max.-Flux-Residual
  Residual-Control   Outer-Iter.   Inner-Iter.     Column Row Layer    Maximum-Head-Change  Column Row Layer    Maximum-Flux-Residual          L2-NORM 
          0                 1           2             2    2     1       0.4538794107E-02       2    2    1         0.2370015118E+00      0.6209437480E+00
          0                 2           2             2    2     1      -0.4415018893E-03       2    2    1        -0.2370021682E-01      0.6203046378E-01
          0                 3           1             2    2     1       0.3006463198E-04       2    2    1         0.1659015262E-02      0.4336060384E-02

    ------------------------------------------------
       NWT REQUIRED            3 OUTER ITERATIONS 
       AND A TOTAL OF          5 INNER ITERATIONS.
    ------------------------------------------------

 NO OUTPUT CONTROL FOR STRESS PERIOD   41   TIME STEP    3
 
 SOLVING FOR HEAD 
                                                   Max.-Head-Change                         Max.-Flux-Residual
  Residual-Control   Outer-Iter.   Inner-Iter.     Column Row Layer    Maximum-Head-Change  Column Row Layer    Maximum-Flux-Residual          L2-NORM 
          0                 1           2             2    2     1       0.4388082603E-02       2    2    1         0.2291122317E+00      0.5996502765E+00
          0                 2           2             2    2     1      -0.4268417002E-03       2    2    1        -0.2291128421E-01      0.5986557865E-01
          0                 3           1             2    2     1       0.2906632826E-04       2    2    1         0.1603790015E-02      0.4186738188E-02

    ------------------------------------------------
       NWT REQUIRED            3 OUTER ITERATIONS 
       AND A TOTAL OF          5 INNER ITERATIONS.
    ------------------------------------------------

 NO OUTPUT CONTROL FOR STRESS PERIOD   41   TIME STEP    4
 
 SOLVING FOR HEAD 
                                                   Max.-Head-Change                         Max.-Flux-Residual
  Residual-Control   Outer-Iter.   Inner-Iter.     Column Row Layer    Maximum-Head-Change  Column Row Layer    Maximum-Flux-Residual          L2-NORM 
          0                 1           2             3   13     1      -0.8114534230E-02       3   13    1        -0.4722641162E+00      0.8467235400E+00
          0                 2           2             3   13     1       0.7713293621E-03       3   13    1         0.4615878518E-01      0.8301823973E-01
          0                 3           1             3   13     1      -0.5087716366E-04       3   13    1        -0.3130327194E-02      0.5679125741E-02

    ------------------------------------------------
       NWT REQUIRED            3 OUTER ITERATIONS 
       AND A TOTAL OF          5 INNER ITERATIONS.
    ------------------------------------------------

 NO OUTPUT CONTROL FOR STRESS PERIOD   41   TIME STEP    5
 
 SOLVING FOR HEAD 
                                                   Max.-Head-Change                         Max.-Flux-Residual
  Residual-Control   Outer-Iter.   Inner-Iter.     Column Row Layer    Maximum-Head-Change  Column Row Layer    Maximum-Flux-Residual          L2-NORM 
          0                 1           2             3   13     1      -0.7256606713E-02       4   13    1        -0.4225064244E+00      0.7943798218E+00
          0                 2           2             4   13     1       0.6920538084E-03       4   13    1         0.4190445802E-01      0.7814310548E-01
          0                 3           1             4   13     1      -0.4659349969E-04       4   13    1        -0.2900878881E-02      0.5351644318E-02

    ------------------------------------------------
       NWT REQUIRED            3 OUTER ITERATIONS 
       AND A TOTAL OF          5 INNER ITERATIONS.
    ------------------------------------------------

 NO OUTPUT CONTROL FOR STRESS PERIOD   41   TIME STEP    6
 
 SOLVING FOR HEAD 
                                                   Max.-Head-Change                         Max.-Flux-Residual
  Residual-Control   Outer-Iter.   Inner-Iter.     Column Row Layer    Maximum-Head-Change  Column Row Layer    Maximum-Flux-Residual          L2-NORM 
          0                 1           2             3   13     1      -0.6489459045E-02       3   13    1        -0.3775210149E+00      0.7372557696E+00
          0                 2           2             3   13     1       0.6166564755E-03       4   13    1         0.3697982835E-01      0.7259476792E-01
          0                 3           1             4   13     1      -0.4110199225E-04       4   13    1        -0.2558911855E-02      0.4977048067E-02

    ------------------------------------------------
       NWT REQUIRED            3 OUTER ITERATIONS 
       AND A TOTAL OF          5 INNER ITERATIONS.
    ------------------------------------------------

 NO OUTPUT CONTROL FOR STRESS PERIOD   41   TIME STEP    7
 
 SOLVING FOR HEAD 
                                                   Max.-Head-Change                         Max.-Flux-Residual
  Residual-Control   Outer-Iter.   Inner-Iter.     Column Row Layer    Maximum-Head-Change  Column Row Layer    Maximum-Flux-Residual          L2-NORM 
          0                 1           2             3   13     1      -0.5803151747E-02       3   13    1        -0.3376078178E+00      0.6881632798E+00
          0                 2           2             3   13     1       0.5516158588E-03       3   13    1         0.3299631295E-01      0.6774939123E-01
          0                 3           1             3   13     1      -0.3638943891E-04       3   13    1        -0.2239715072E-02      0.4570539076E-02

    ------------------------------------------------
       NWT REQUIRED            3 OUTER ITERATIONS 
       AND A TOTAL OF          5 INNER ITERATIONS.
    ------------------------------------------------

 NO OUTPUT CONTROL FOR STRESS PERIOD   41   TIME STEP    8
 
 SOLVING FOR HEAD 
                                                   Max.-Head-Change                         Max.-Flux-Residual
  Residual-Control   Outer-Iter.   Inner-Iter.     Column Row Layer    Maximum-Head-Change  Column Row Layer    Maximum-Flux-Residual          L2-NORM 
          0                 1           2             3   13     1      -0.5189074970E-02       3   13    1        -0.3018953392E+00      0.6461348691E+00
          0                 2           2             3   13     1       0.4932836862E-03       3   13    1         0.2950668559E-01      0.6376414100E-01
          0                 3           1             3   13     1      -0.3250455176E-04       3   13    1        -0.1998994769E-02      0.4385105192E-02

    ------------------------------------------------
       NWT REQUIRED            3 OUTER ITERATIONS 
       AND A TOTAL OF          5 INNER ITERATIONS.
    ------------------------------------------------

 NO OUTPUT CONTROL FOR STRESS PERIOD   41   TIME STEP    9
 
 SOLVING FOR HEAD 
                                                   Max.-Head-Change                         Max.-Flux-Residual
  Residual-Control   Outer-Iter.   Inner-Iter.     Column Row Layer    Maximum-Head-Change  Column Row Layer    Maximum-Flux-Residual          L2-NORM 
          0                 1           2             3   13     1      -0.4639632390E-02       3   13    1        -0.2699419432E+00      0.6103053047E+00
          0                 2           2             3   13     1       0.4411403459E-03       3   13    1         0.2638893783E-01      0.6030026518E-01
          0                 3           1             3   13     1      -0.2910023573E-04       3   13    1        -0.1789739432E-02      0.4154346416E-02

    ------------------------------------------------
       NWT REQUIRED            3 OUTER ITERATIONS 
       AND A TOTAL OF          5 INNER ITERATIONS.
    ------------------------------------------------

 NO OUTPUT CONTROL FOR STRESS PERIOD   41   TIME STEP   10
 
 SOLVING FOR HEAD 
                                                   Max.-Head-Change                         Max.-Flux-Residual
  Residual-Control   Outer-Iter.   Inner-Iter.     Column Row Layer    Maximum-Head-Change  Column Row Layer    Maximum-Flux-Residual          L2-NORM 
          0                 1           2             3   13     1      -0.4148166503E-02       3   13    1        -0.2413607195E+00      0.5798744044E+00
          0                 2           2             3   13     1       0.3944921601E-03       3   13    1         0.2359980103E-01      0.5736296530E-01
          0                 3           1             3   13     1      -0.2602124959E-04       3   13    1        -0.1600465299E-02      0.3958118175E-02

    ------------------------------------------------
       NWT REQUIRED            3 OUTER ITERATIONS 
       AND A TOTAL OF          5 INNER ITERATIONS.
    ------------------------------------------------

 NO OUTPUT CONTROL FOR STRESS PERIOD   41   TIME STEP   11
 
 SOLVING FOR HEAD 
                                                   Max.-Head-Change                         Max.-Flux-Residual
  Residual-Control   Outer-Iter.   Inner-Iter.     Column Row Layer    Maximum-Head-Change  Column Row Layer    Maximum-Flux-Residual          L2-NORM 
          0                 1           2             3   13     1      -0.3708411916E-02       3   13    1        -0.2157869530E+00      0.5541304946E+00
          0                 2           2             3   13     1       0.3527603264E-03       3   13    1         0.2110459831E-01      0.5488368317E-01
          0                 3           1             3   13     1      -0.2327263627E-04       3   13    1        -0.1431504846E-02      0.3792961732E-02

    ------------------------------------------------
       NWT REQUIRED            3 OUTER ITERATIONS 
       AND A TOTAL OF          5 INNER ITERATIONS.
    ------------------------------------------------

 NO OUTPUT CONTROL FOR STRESS PERIOD   41   TIME STEP   12
 
 SOLVING FOR HEAD 
                                                   Max.-Head-Change                         Max.-Flux-Residual
  Residual-Control   Outer-Iter.   Inner-Iter.     Column Row Layer    Maximum-Head-Change  Column Row Layer    Maximum-Flux-Residual          L2-NORM 
          0                 1           2             3   13     1      -0.3314941787E-02       3   13    1        -0.1929054789E+00      0.5323977802E+00
          0                 2           2             1    1     1      -0.3156502800E-03       3   13    1         0.1887148264E-01      0.5279140107E-01
          0                 3           1             1    1     1       0.2149461116E-04       3   13    1        -0.1280730979E-02      0.3654080487E-02

    ------------------------------------------------
       NWT REQUIRED            3 OUTER ITERATIONS 
       AND A TOTAL OF          5 INNER ITERATIONS.
    ------------------------------------------------

 NO OUTPUT CONTROL FOR STRESS PERIOD   41   TIME STEP   13
 
 SOLVING FOR HEAD 
                                                   Max.-Head-Change                         Max.-Flux-Residual
  Residual-Control   Outer-Iter.   Inner-Iter.     Column Row Layer    Maximum-Head-Change  Column Row Layer    Maximum-Flux-Residual          L2-NORM 
          0                 1           2             1    1     1       0.3241824555E-02       3   13    1        -0.1724326556E+00      0.5141148239E+00
          0                 2           2             1    1     1      -0.3153414070E-03       3   13    1         0.1687263481E-01      0.5103377548E-01
          0                 3           1             1    1     1       0.2147357824E-04       1    1    1         0.1177961925E-02      0.3532333556E-02

    ------------------------------------------------
       NWT REQUIRED            3 OUTER ITERATIONS 
       AND A TOTAL OF          5 INNER ITERATIONS.
    ------------------------------------------------

 NO OUTPUT CONTROL FOR STRESS PERIOD   41   TIME STEP   14
 
 SOLVING FOR HEAD 
                                                   Max.-Head-Change                         Max.-Flux-Residual
  Residual-Control   Outer-Iter.   Inner-Iter.     Column Row Layer    Maximum-Head-Change  Column Row Layer    Maximum-Flux-Residual          L2-NORM 
          0                 1           2             1    1     1       0.3238660144E-02       1    1    1         0.1681154061E+00      0.4987613283E+00
          0                 2           2             1    1     1      -0.3150335950E-03       1    1    1        -0.1681155895E-01      0.4956062312E-01
          0                 3           1             1    1     1       0.2145261727E-04       1    1    1         0.1176809465E-02      0.3440597253E-02

    ------------------------------------------------
       NWT REQUIRED            3 OUTER ITERATIONS 
       AND A TOTAL OF          5 INNER ITERATIONS.
    ------------------------------------------------

 NO OUTPUT CONTROL FOR STRESS PERIOD   41   TIME STEP   15
 
 SOLVING FOR HEAD 
                                                   Max.-Head-Change                         Max.-Flux-Residual
  Residual-Control   Outer-Iter.   Inner-Iter.     Column Row Layer    Maximum-Head-Change  Column Row Layer    Maximum-Flux-Residual          L2-NORM 
          0                 1           2             1    1     1       0.3235506576E-02       1    1    1         0.1679513363E+00      0.4858743443E+00
          0                 2           2             1    1     1      -0.3147268374E-03       1    1    1        -0.1679515189E-01      0.4832311202E-01
          0                 3           1             1    1     1       0.2143172778E-04       1    1    1         0.1175660960E-02      0.3358549883E-02

    ------------------------------------------------
       NWT REQUIRED            3 OUTER ITERATIONS 
       AND A TOTAL OF          5 INNER ITERATIONS.
    ------------------------------------------------

 NO OUTPUT CONTROL FOR STRESS PERIOD   41   TIME STEP   16
 
 SOLVING FOR HEAD 
                                                   Max.-Head-Change                         Max.-Flux-Residual
  Residual-Control   Outer-Iter.   Inner-Iter.     Column Row Layer    Maximum-Head-Change  Column Row Layer    Maximum-Flux-Residual          L2-NORM 
          0                 1           2             1    1     1       0.3232363794E-02       1    1    1         0.1677878287E+00      0.4750610955E+00
          0                 2           2             1    1     1      -0.3144211291E-03       1    1    1        -0.1677880105E-01      0.4728749095E-01
          0                 3           1             1    1     1       0.2141091047E-04       1    1    1         0.1174516406E-02      0.3289953804E-02

    ------------------------------------------------
       NWT REQUIRED            3 OUTER ITERATIONS 
       AND A TOTAL OF          5 INNER ITERATIONS.
    ------------------------------------------------

 NO OUTPUT CONTROL FOR STRESS PERIOD   41   TIME STEP   17
 
 SOLVING FOR HEAD 
                                                   Max.-Head-Change                         Max.-Flux-Residual
  Residual-Control   Outer-Iter.   Inner-Iter.     Column Row Layer    Maximum-Head-Change  Column Row Layer    Maximum-Flux-Residual          L2-NORM 
          0                 1           2             1    1     1       0.3229231724E-02       1    1    1         0.1676248804E+00      0.4659733967E+00
          0                 2           2             1    1     1      -0.3141164631E-03       1    1    1        -0.1676250615E-01      0.4641490854E-01
          0                 3           1             1    1     1       0.2139016369E-04       1    1    1         0.1173375751E-02      0.3232091873E-02

    ------------------------------------------------
       NWT REQUIRED            3 OUTER ITERATIONS 
       AND A TOTAL OF          5 INNER ITERATIONS.
    ------------------------------------------------

 NO OUTPUT CONTROL FOR STRESS PERIOD   41   TIME STEP   18
 
 SOLVING FOR HEAD 
                                                   Max.-Head-Change                         Max.-Flux-Residual
  Residual-Control   Outer-Iter.   Inner-Iter.     Column Row Layer    Maximum-Head-Change  Column Row Layer    Maximum-Flux-Residual          L2-NORM 
          0                 1           2             1    1     1       0.3226110353E-02       1    1    1         0.1674624874E+00      0.4583411715E+00
          0                 2           2             1    1     1      -0.3138128376E-03       1    1    1        -0.1674626677E-01      0.4568303192E-01
          0                 3           1             1    1     1       0.2136948815E-04       1    1    1         0.1172238996E-02      0.3184104824E-02

    ------------------------------------------------
       NWT REQUIRED            3 OUTER ITERATIONS 
       AND A TOTAL OF          5 INNER ITERATIONS.
    ------------------------------------------------

 NO OUTPUT CONTROL FOR STRESS PERIOD   41   TIME STEP   19
 
 SOLVING FOR HEAD 
                                                   Max.-Head-Change                         Max.-Flux-Residual
  Residual-Control   Outer-Iter.   Inner-Iter.     Column Row Layer    Maximum-Head-Change  Column Row Layer    Maximum-Flux-Residual          L2-NORM 
          0                 1           2             1    1     1       0.3222999600E-02       1    1    1         0.1673006492E+00      0.4519024832E+00
          0                 2           2             1    1     1      -0.3135102449E-03       1    1    1        -0.1673008286E-01      0.4506571916E-01
          0                 3           1             1    1     1       0.2134888290E-04       1    1    1         0.1171106138E-02      0.3143132560E-02

    ------------------------------------------------
       NWT REQUIRED            3 OUTER ITERATIONS 
       AND A TOTAL OF          5 INNER ITERATIONS.
    ------------------------------------------------

 NO OUTPUT CONTROL FOR STRESS PERIOD   41   TIME STEP   20
 
 SOLVING FOR HEAD 
                                                   Max.-Head-Change                         Max.-Flux-Residual
  Residual-Control   Outer-Iter.   Inner-Iter.     Column Row Layer    Maximum-Head-Change  Column Row Layer    Maximum-Flux-Residual          L2-NORM 
          0                 1           2             1    1     1       0.3219899435E-02       1    1    1         0.1671393615E+00      0.4464603619E+00
          0                 2           2             1    1     1      -0.3132086825E-03       1    1    1        -0.1671395403E-01      0.4454318727E-01
          0                 3           1             1    1     1       0.2132834747E-04       1    1    1         0.1169977109E-02      0.3108708084E-02

    ------------------------------------------------
       NWT REQUIRED            3 OUTER ITERATIONS 
       AND A TOTAL OF          5 INNER ITERATIONS.
    ------------------------------------------------

 NO OUTPUT CONTROL FOR STRESS PERIOD   41   TIME STEP   21
 
 SOLVING FOR HEAD 
                                                   Max.-Head-Change                         Max.-Flux-Residual
  Residual-Control   Outer-Iter.   Inner-Iter.     Column Row Layer    Maximum-Head-Change  Column Row Layer    Maximum-Flux-Residual          L2-NORM 
          0                 1           2             1    1     1       0.3216809759E-02       1    1    1         0.1669786228E+00      0.4418285863E+00
          0                 2           2             1    1     1      -0.3129081400E-03       1    1    1        -0.1669788008E-01      0.4409846060E-01
          0                 3           1             1    1     1       0.2130788139E-04       1    1    1         0.1168851937E-02      0.3079250077E-02

    ------------------------------------------------
       NWT REQUIRED            3 OUTER ITERATIONS 
       AND A TOTAL OF          5 INNER ITERATIONS.
    ------------------------------------------------

 NO OUTPUT CONTROL FOR STRESS PERIOD   41   TIME STEP   22
 
 SOLVING FOR HEAD 
                                                   Max.-Head-Change                         Max.-Flux-Residual
  Residual-Control   Outer-Iter.   Inner-Iter.     Column Row Layer    Maximum-Head-Change  Column Row Layer    Maximum-Flux-Residual          L2-NORM 
          0                 1           2             1    1     1       0.3213730535E-02       1    1    1         0.1668184279E+00      0.4378787435E+00
          0                 2           2             1    1     1      -0.3126086142E-03       1    1    1        -0.1668186051E-01      0.4371891324E-01
          0                 3           1             1    1     1       0.2128748512E-04       1    1    1         0.1167730571E-02      0.3054035569E-02

    ------------------------------------------------
       NWT REQUIRED            3 OUTER ITERATIONS 
       AND A TOTAL OF          5 INNER ITERATIONS.
    ------------------------------------------------

 NO OUTPUT CONTROL FOR STRESS PERIOD   41   TIME STEP   23
 
 SOLVING FOR HEAD 
                                                   Max.-Head-Change                         Max.-Flux-Residual
  Residual-Control   Outer-Iter.   Inner-Iter.     Column Row Layer    Maximum-Head-Change  Column Row Layer    Maximum-Flux-Residual          L2-NORM 
          0                 1           2             1    1     1       0.3210661737E-02       1    1    1         0.1666587750E+00      0.4344867180E+00
          0                 2           2             1    1     1      -0.3123101031E-03       1    1    1        -0.1666589517E-01      0.4339181452E-01
          0                 3           1             1    1     1       0.2126715773E-04       1    1    1         0.1166612999E-02      0.3032216294E-02

    ------------------------------------------------
       NWT REQUIRED            3 OUTER ITERATIONS 
       AND A TOTAL OF          5 INNER ITERATIONS.
    ------------------------------------------------

 NO OUTPUT CONTROL FOR STRESS PERIOD   41   TIME STEP   24
 
 SOLVING FOR HEAD 
                                                   Max.-Head-Change                         Max.-Flux-Residual
  Residual-Control   Outer-Iter.   Inner-Iter.     Column Row Layer    Maximum-Head-Change  Column Row Layer    Maximum-Flux-Residual          L2-NORM 
          0                 1           2             1    1     1       0.3207603282E-02       1    1    1         0.1664996626E+00      0.4315453716E+00
          0                 2           2             1    1     1      -0.3120125976E-03       1    1    1        -0.1664998384E-01      0.4310811983E-01
          0                 3           1             1    1     1       0.2124689850E-04       1    1    1         0.1165499202E-02      0.3013169564E-02

    ------------------------------------------------
       NWT REQUIRED            3 OUTER ITERATIONS 
       AND A TOTAL OF          5 INNER ITERATIONS.
    ------------------------------------------------

 NO OUTPUT CONTROL FOR STRESS PERIOD   41   TIME STEP   25
 
 SOLVING FOR HEAD 
                                                   Max.-Head-Change                         Max.-Flux-Residual
  Residual-Control   Outer-Iter.   Inner-Iter.     Column Row Layer    Maximum-Head-Change  Column Row Layer    Maximum-Flux-Residual          L2-NORM 
          0                 1           2             1    1     1       0.3204555147E-02       1    1    1         0.1663410865E+00      0.4289892102E+00
          0                 2           2             1    1     1      -0.3117160962E-03       1    1    1        -0.1663412617E-01      0.4286095741E-01
          0                 3           1             1    1     1       0.2122670814E-04       1    1    1         0.1164389172E-02      0.2996917544E-02

    ------------------------------------------------
       NWT REQUIRED            3 OUTER ITERATIONS 
       AND A TOTAL OF          5 INNER ITERATIONS.
    ------------------------------------------------

 NO OUTPUT CONTROL FOR STRESS PERIOD   41   TIME STEP   26
 
 SOLVING FOR HEAD 
                                                   Max.-Head-Change                         Max.-Flux-Residual
  Residual-Control   Outer-Iter.   Inner-Iter.     Column Row Layer    Maximum-Head-Change  Column Row Layer    Maximum-Flux-Residual          L2-NORM 
          0                 1           2             1    1     1       0.3040501846E-02       1    1    1         0.1578186516E+00      0.4355790555E+00
          0                 2           2             1    1     1      -0.2957581470E-03       1    1    1        -0.1578188028E-01      0.4340263582E-01
          0                 3           1             1    1     1       0.2014003109E-04       1    1    1         0.1104731962E-02      0.3024076211E-02

    ------------------------------------------------
       NWT REQUIRED            3 OUTER ITERATIONS 
       AND A TOTAL OF          5 INNER ITERATIONS.
    ------------------------------------------------

 NO OUTPUT CONTROL FOR STRESS PERIOD   41   TIME STEP   27
 
 SOLVING FOR HEAD 
                                                   Max.-Head-Change                         Max.-Flux-Residual
  Residual-Control   Outer-Iter.   Inner-Iter.     Column Row Layer    Maximum-Head-Change  Column Row Layer    Maximum-Flux-Residual          L2-NORM 
          0                 1           2             2   13     1      -0.3924408067E-02       2   13    1        -0.2216332786E+00      0.5381690045E+00
          0                 2           2             2   13     1       0.3661769070E-03       2   13    1         0.2125810403E-01      0.5303528741E-01
          0                 3           1             4   13     1      -0.2366370347E-04       4   13    1        -0.1467929003E-02      0.3639720032E-02

    ------------------------------------------------
       NWT REQUIRED            3 OUTER ITERATIONS 
       AND A TOTAL OF          5 INNER ITERATIONS.
    ------------------------------------------------

 NO OUTPUT CONTROL FOR STRESS PERIOD   41   TIME STEP   28
 
 SOLVING FOR HEAD 
                                                   Max.-Head-Change                         Max.-Flux-Residual
  Residual-Control   Outer-Iter.   Inner-Iter.     Column Row Layer    Maximum-Head-Change  Column Row Layer    Maximum-Flux-Residual          L2-NORM 
          0                 1           2             2   13     1      -0.3619543079E-02       2   13    1        -0.2044238332E+00      0.5123058759E+00
          0                 2           2             2   13     1       0.3381164052E-03       2   13    1         0.1962995279E-01      0.5055161160E-01
          0                 3           1             2   13     1      -0.2173433266E-04       4   13    1        -0.1299498574E-02      0.3475594534E-02

    ------------------------------------------------
       NWT REQUIRED            3 OUTER ITERATIONS 
       AND A TOTAL OF          5 INNER ITERATIONS.
    ------------------------------------------------

 NO OUTPUT CONTROL FOR STRESS PERIOD   41   TIME STEP   29
 
 SOLVING FOR HEAD 
                                                   Max.-Head-Change                         Max.-Flux-Residual
  Residual-Control   Outer-Iter.   Inner-Iter.     Column Row Layer    Maximum-Head-Change  Column Row Layer    Maximum-Flux-Residual          L2-NORM 
          0                 1           2             2   13     1      -0.3337934416E-02       2   13    1        -0.1885250611E+00      0.4900428592E+00
          0                 2           2             2   13     1       0.3120715645E-03       2   13    1         0.1811847485E-01      0.4841533740E-01
          0                 3           1             2   13     1      -0.2008187526E-04       2   13    1        -0.1198396169E-02      0.3334571159E-02

    ------------------------------------------------
       NWT REQUIRED            3 OUTER ITERATIONS 
       AND A TOTAL OF          5 INNER ITERATIONS.
    ------------------------------------------------

 NO OUTPUT CONTROL FOR STRESS PERIOD   41   TIME STEP   30



 STREAM LISTING     PERIOD     41   STEP       30

 LAYER ROW COL. STREAM  RCH.  FLOW INTO     FLOW TO   FLOW OUT OF   OVRLND.     DIRECT     STREAM       STREAM     STREAM     STREAM   STREAMBED  STREAMBED
                SEG.NO.  NO.  STRM. RCH.    AQUIFER    STRM. RCH.    RUNOFF     PRECIP       ET          HEAD       DEPTH      WIDTH   CONDCTNC.   GRADIENT

   1    1    1     1     1    4.7249E+01  3.2762E-01   4.6921E+01  0.000E+00  0.000E+00  0.000E+00  1.09443E+03  1.381E+00  1.662E+01  7.477E-02  1.460E+00
   1    2    2     1     2    4.6921E+01  5.0759E-01   4.6413E+01  0.000E+00  0.000E+00  0.000E+00  1.08944E+03  1.379E+00  1.656E+01  1.159E-01  1.460E+00
   1    3    3     1     3    4.6413E+01  4.3309E-01   4.5980E+01  0.000E+00  0.000E+00  0.000E+00  1.08379E+03  1.376E+00  1.650E+01  9.898E-02  1.459E+00
   1    3    4     1     4    4.5980E+01  3.9899E-01   4.5581E+01  0.000E+00  0.000E+00  0.000E+00  1.07878E+03  1.373E+00  1.644E+01  9.124E-02  1.458E+00
   1    4    5     2     1    4.3581E+01  3.6514E-01   4.3216E+01  0.000E+00  0.000E+00  0.000E+00  1.07362E+03  1.681E+00  1.200E+01  7.800E-02  1.560E+00
   1    5    6     2     2    4.3216E+01  2.8042E-01   4.2936E+01  0.000E+00  0.000E+00  0.000E+00  1.06818E+03  1.674E+00  1.200E+01  6.000E-02  1.558E+00
   1    6    6     2     3    4.2936E+01  2.8003E-01   4.2656E+01  0.000E+00  0.000E+00  0.000E+00  1.06346E+03  1.667E+00  1.200E+01  6.000E-02  1.556E+00
   1    7    6     2     4    4.2656E+01  2.7964E-01   4.2376E+01  0.000E+00  0.000E+00  0.000E+00  1.05874E+03  1.661E+00  1.200E+01  6.000E-02  1.554E+00
   1    8    6     2     5    4.2376E+01  2.7924E-01   4.2097E+01  0.000E+00  0.000E+00  0.000E+00  1.05401E+03  1.654E+00  1.200E+01  6.000E-02  1.551E+00
   1    3    5     3     1    2.0000E+00  2.8252E-01   1.7175E+00  0.000E+00  0.000E+00  0.000E+00  1.07555E+03  1.909E+00  9.636E+00  7.227E-02  1.955E+00
   1    3    6     3     2    1.7175E+00  2.4905E-01   1.4684E+00  0.000E+00  0.000E+00  0.000E+00  1.07264E+03  1.727E+00  8.909E+00  6.682E-02  1.864E+00
   1    3    7     3     3    1.4684E+00  1.9718E-01   1.2712E+00  0.000E+00  0.000E+00  0.000E+00  1.06987E+03  1.555E+00  8.218E+00  5.547E-02  1.777E+00
   1    4    8     3     4    1.2712E+00  2.2567E-01   1.0456E+00  0.000E+00  0.000E+00  0.000E+00  1.06682E+03  1.364E+00  7.455E+00  6.709E-02  1.682E+00
   1    5    8     3     5    1.0456E+00  1.5790E-01   8.8768E-01  0.000E+00  0.000E+00  0.000E+00  1.06362E+03  1.164E+00  6.655E+00  4.991E-02  1.582E+00
   1    6    8     3     6    8.8768E-01  5.5980E-02   8.3170E-01  0.000E+00  0.000E+00  0.000E+00  1.06158E+03  1.036E+00  6.145E+00  1.844E-02  1.518E+00
   1    5   10     4     1    1.0000E+01  9.0919E-02   9.9091E+00  0.000E+00  0.000E+00  0.000E+00  1.07836E+03  6.368E-01  1.000E+01  2.500E-02  1.212E+00
   1    5    9     4     2    9.9091E+00  1.8158E-01   9.7275E+00  0.000E+00  0.000E+00  0.000E+00  1.07154E+03  6.315E-01  1.000E+01  5.000E-02  1.211E+00
   1    6    8     4     3    9.7275E+00  1.2689E-01   9.6006E+00  0.000E+00  0.000E+00  0.000E+00  1.06381E+03  6.256E-01  1.000E+01  3.500E-02  1.209E+00
   1    6    8     5     1    1.0432E+01  2.2686E-01   1.0205E+01  0.000E+00  0.000E+00  0.000E+00  1.05868E+03  6.790E-01  1.542E+01  6.166E-02  1.226E+00
   1    7    7     5     2    1.0205E+01  2.7894E-01   9.9265E+00  0.000E+00  0.000E+00  0.000E+00  1.05417E+03  6.732E-01  1.519E+01  7.594E-02  1.224E+00
   1    8    7     5     3    9.9265E+00  1.9221E-01   9.7343E+00  0.000E+00  0.000E+00  0.000E+00  1.04992E+03  6.676E-01  1.497E+01  5.241E-02  1.223E+00
   1    8    6     5     4    9.7343E+00  1.3577E-01   9.5985E+00  0.000E+00  0.000E+00  0.000E+00  1.04691E+03  6.637E-01  1.482E+01  3.706E-02  1.221E+00
   1    9    6     6     1    5.1695E+01  2.9310E-01   5.1402E+01  0.000E+00  0.000E+00  0.000E+00  1.04461E+03  1.885E+00  1.200E+01  6.000E-02  1.628E+00
   1   10    7     6     2    5.1402E+01  2.9271E-01   5.1110E+01  0.000E+00  0.000E+00  0.000E+00  1.04006E+03  1.879E+00  1.200E+01  6.000E-02  1.626E+00
   1   11    7     6     3    5.1110E+01  2.9233E-01   5.0817E+01  0.000E+00  0.000E+00  0.000E+00  1.03551E+03  1.872E+00  1.200E+01  6.000E-02  1.624E+00
   1   12    7     6     4    5.0817E+01  2.9194E-01   5.0525E+01  0.000E+00  0.000E+00  0.000E+00  1.03096E+03  1.866E+00  1.200E+01  6.000E-02  1.622E+00
   1   13    7     6     5    5.0525E+01  1.6553E-02   5.0509E+01  0.000E+00  0.000E+00  0.000E+00  1.02777E+03  1.862E+00  1.200E+01  2.400E-02  2.299E-01
   1   14    9     7     1    1.5000E+02  1.3430E+00   1.4866E+02  0.000E+00  0.000E+00  0.000E+00  1.03987E+03  2.288E+00  5.529E+01  5.593E-01  8.004E-01
   1   13    8     7     2    1.4866E+02  1.8443E+00   1.4681E+02  0.000E+00  0.000E+00  0.000E+00  1.03478E+03  2.279E+00  5.526E+01  6.148E-01  1.000E+00
   1   13    7     7     3    1.4681E+02  1.4565E+00   1.4536E+02  0.000E+00  0.000E+00  0.000E+00  1.02969E+03  2.270E+00  5.522E+01  5.584E-01  8.694E-01
   1   13    6     8     1    1.9586E+02  1.0006E+00   1.9486E+02  0.000E+00  0.000E+00  0.000E+00  1.02499E+03  3.110E+00  4.510E+01  4.596E-01  7.258E-01
   1   13    5     8     2    1.9486E+02  2.0453E-01   1.9466E+02  0.000E+00  0.000E+00  0.000E+00  1.01873E+03  3.107E+00  4.505E+01  4.590E-01  1.485E-01
   1   13    4     8     3    1.9466E+02 -2.4928E+00   1.9715E+02  0.000E+00  0.000E+00  0.000E+00  1.01249E+03  3.113E+00  4.515E+01  4.600E+00 -1.806E-01
   1   13    3     8     4    1.9715E+02 -3.7068E+00   2.0086E+02  0.000E+00  0.000E+00  0.000E+00  1.00626E+03  3.132E+00  4.541E+01  4.628E+00 -2.670E-01
   1   13    2     8     5    2.0086E+02 -2.7073E+00   2.0357E+02  0.000E+00  0.000E+00  0.000E+00  1.00003E+03  3.151E+00  4.569E+01  4.655E+00 -1.938E-01
   1   13    1     8     6    2.0357E+02 -2.0771E+00   2.0564E+02  0.000E+00  0.000E+00  0.000E+00  9.95040E+02  3.165E+00  4.589E+01  2.806E+00 -2.468E-01
   1    8    6     9     1    0.0000E+00  0.0000E+00   0.0000E+00  0.000E+00  0.000E+00  0.000E+00  1.07875E+03  0.000E+00  4.000E+00  0.000E+00  1.000E+00
   1    8    5     9     2    0.0000E+00  0.0000E+00   0.0000E+00  0.000E+00  0.000E+00  0.000E+00  1.07825E+03  0.000E+00  4.000E+00  0.000E+00  1.000E+00





UNSATURATED ZONE PACKAGE VOLUMETRIC BUDGET FOR  TIME STEP    30 STRESS PERIOD   41
  ------------------------------------------------------------------------------



     CUMULATIVE VOLUMES      L**3       RATES FOR THIS TIME STEP      L**3/T
     ------------------                 ------------------------

           IN:                                      IN:
           ---                                      ---
        INFILTRATION =  1654716858.1140          INFILTRATION =           4.4075

          OUT:                                     OUT:
          ----                                     ----
              UZF ET =  1522602310.0686                UZF ET =           4.4075
        UZF RECHARGE =     1884068.5034          UZF RECHARGE =       0.0000E+00

            IN - OUT =   130230479.5420              IN - OUT =       0.0000E+00

          STORAGE:                                 STORAGE:
          --------                                 --------
      STORAGE CHANGE =   130232327.0958        STORAGE CHANGE =       8.6399E-14

 PERCENT DISCREPANCY IS DIFFERENCE BETWEEN IN-OUT MINUS CHANGE IN STORAGE
 DIVIDED BY THE AVERAGE OF IN AND OUT TIMES 100

 PERCENT DISCREPANCY =          -0.00     PERCENT DISCREPANCY =           0.00






1
  VOLUMETRIC BUDGET FOR AGRICULTURAL FIELDS AT TIME STEP   30, STRESS PERIOD  41
  ------------------------------------------------------------------------------

     CUMULATIVE VOLUMES      L**3       RATES FOR THIS TIME STEP      L**3/T
     ------------------                 ------------------------

           IN:                                      IN:
           ---                                      ---
               AG WELLS  =   218905344.0000                 AG WELLS  =           0.0000
      DIVERSION SEGMENTS =   972051904.0000        DIVERSION SEGMENTS =           0.0000
           GW IRRIGATION =           0.0000             GW IRRIGATION =           0.0000
           SW IRRIGATION =           0.0000             SW IRRIGATION =           0.0000
        SYSTEM LOSSES GW =           0.0000          SYSTEM LOSSES GW =           0.0000
        SYSTEM LOSSES SW =           0.0000          SYSTEM LOSSES SW =           0.0000

                TOTAL IN =  1190957312.0000                  TOTAL IN =           0.0000

          OUT:                                     OUT:
          ----                                     ----
               AG WELLS  =           0.0000                 AG WELLS  =           0.0000
      DIVERSION SEGMENTS =           0.0000        DIVERSION SEGMENTS =           0.0000
           GW IRRIGATION =   218905344.0000             GW IRRIGATION =           0.0000
           SW IRRIGATION =   972071424.0000             SW IRRIGATION =           0.0000
        SYSTEM LOSSES GW =           0.0000          SYSTEM LOSSES GW =           0.0000
        SYSTEM LOSSES SW =           0.0000          SYSTEM LOSSES SW =           0.0000

               TOTAL OUT =  1190976768.0000                 TOTAL OUT =           0.0000

                IN - OUT =      -19456.0000                  IN - OUT =           0.0000

     PERCENT DISCREPANCY =          -0.00         PERCENT DISCREPANCY =           0.00



1
  VOLUMETRIC BUDGET FOR ENTIRE MODEL AT END OF TIME STEP   30, STRESS PERIOD  41
  ------------------------------------------------------------------------------

     CUMULATIVE VOLUMES      L**3       RATES FOR THIS TIME STEP      L**3/T
     ------------------                 ------------------------

           IN:                                      IN:
           ---                                      ---
             STORAGE     =   381004576.0000               STORAGE     =           0.9321
       CONSTANT HEAD     =           0.0000         CONSTANT HEAD     =           0.0000
     HEAD DEP BOUNDS     =    30098096.0000       HEAD DEP BOUNDS     =           0.2862
      STREAM LEAKAGE     =  1258940416.0000        STREAM LEAKAGE     =          12.5888
        UZF RECHARGE     =     1884068.8750          UZF RECHARGE     =           0.0000
               GW ET     =           0.0000                 GW ET     =           0.0000
     SURFACE LEAKAGE     =           0.0000       SURFACE LEAKAGE     =           0.0000
           AG WELLS      =           0.0000             AG WELLS      =           0.0000

                TOTAL IN =  1671927168.0000                  TOTAL IN =          13.8071

          OUT:                                     OUT:
          ----                                     ----
             STORAGE     =   284324960.0000               STORAGE     =           2.4272
       CONSTANT HEAD     =           0.0000         CONSTANT HEAD     =           0.0000
     HEAD DEP BOUNDS     =    30616218.0000       HEAD DEP BOUNDS     =           0.2956
      STREAM LEAKAGE     =  1134389504.0000        STREAM LEAKAGE     =          10.9840
        UZF RECHARGE     =           0.0000          UZF RECHARGE     =           0.0000
               GW ET     =     3647273.2500                 GW ET     =           0.1007
     SURFACE LEAKAGE     =           0.0000       SURFACE LEAKAGE     =           0.0000
           AG WELLS      =   218905344.0000             AG WELLS      =           0.0000

               TOTAL OUT =  1671883264.0000                 TOTAL OUT =          13.8075

                IN - OUT =       43904.0000                  IN - OUT =      -4.2343E-04

     PERCENT DISCREPANCY =           0.00         PERCENT DISCREPANCY =          -0.00






         TIME SUMMARY AT END OF TIME STEP   30 IN STRESS PERIOD   41
                    SECONDS     MINUTES      HOURS       DAYS        YEARS
                    -----------------------------------------------------------
   TIME STEP LENGTH  87667.      1461.1      24.352      1.0147     2.77799E-03
 STRESS PERIOD TIME 2.63000E+06  43833.      730.56      30.440     8.33397E-02
         TOTAL TIME 1.05286E+08 1.75476E+06  29246.      1218.6      3.3363    
1
1
                            STRESS PERIOD NO.   42, LENGTH =   2630000.    
                            -----------------------------------------------

                              NUMBER OF TIME STEPS =    30

                               MULTIPLIER FOR DELT =     1.000

                            INITIAL TIME STEP SIZE =   87666.66    

 REUSING NON-PARAMETER GHB CELLS FROM LAST STRESS PERIOD

      2 GHB CELLS

 REUSING STREAM SEGMENT DATA FROM LAST STRESS PERIOD



            AREAL INFILTRATION RATE
 READING ON UNIT   19 WITH FORMAT: (10F4.0)            

            1           2           3           4           5           6           7           8           9          10
 ........................................................................................................................
   1   1.2000E-09   0.000       0.000       0.000       0.000       0.000       0.000       0.000       0.000       0.000    
   2   2.1000E-09  2.0000E-09  8.0000E-10  8.5000E-09   0.000       0.000       0.000       0.000       0.000       0.000    
   3   5.0000E-10  1.1000E-09  8.8000E-09  5.5000E-09   0.000       0.000       0.000       0.000       0.000       0.000    
   4   8.5000E-09  1.1000E-09  1.1000E-09  1.1000E-09  2.0000E-09   0.000       0.000       0.000       0.000       0.000    
   5   8.5000E-09  1.1000E-09  1.1000E-09  1.1000E-09  1.1000E-09   0.000       0.000       0.000       0.000       0.000    
   6   8.5000E-09  5.2000E-09  2.1000E-09  1.1000E-09  1.5000E-09   0.000       0.000       0.000       0.000       0.000    
   7   8.5000E-09  5.2000E-09  2.1000E-09  1.2000E-09  2.0000E-09   0.000       0.000       0.000       0.000       0.000    
   8   5.0000E-10  5.2000E-09  2.1000E-09  1.2000E-09  5.0000E-09   0.000       0.000       0.000       0.000       0.000    
   9   5.0000E-10  5.2000E-09  2.1000E-09  1.2000E-09  5.0000E-09   0.000       0.000       0.000       0.000       0.000    
  10   5.0000E-10  5.2000E-09  2.1000E-09  1.2000E-09  5.8000E-09   0.000       0.000       0.000       0.000       0.000    
  11   1.0000E-10  1.1000E-09  1.1000E-09  1.2000E-09  5.0000E-09   0.000       0.000       0.000       0.000       0.000    
  12   1.1000E-09  1.1000E-09  1.1000E-09  1.1000E-09  2.0000E-09   0.000       0.000       0.000       0.000       0.000    
  13   1.1000E-09  2.2000E-09  2.2000E-09  2.1000E-09  1.0000E-09   0.000       0.000       0.000       0.000       0.000    
  14   2.0000E-10  5.5000E-09  5.5000E-09  5.2000E-09  1.0000E-09   0.000       0.000       0.000       0.000       0.000    
  15    0.000      8.8000E-09  8.8000E-09   0.000       0.000       0.000       0.000       0.000       0.000       0.000    

                  ET RATE =  5.000000E-08

 USING ET EXTINCTION DEPTH FROM PREVIOUS STRESS PERIOD. CURRENT PERIOD IS:      42

 USING EXTINCTION WATER CONTENT FROM PREVIOUS STRESS PERIOD. CURRENT PERIOD IS:      42

 USING AIR ENTRY PRESSURE FROM PREVIOUS STRESS PERIOD. CURRENT PERIOD IS:      42

 USING ROOT PRESSURE HEAD FROM PREVIOUS STRESS PERIOD. CURRENT PERIOD IS:      42

 USING ROOT ACTIVITY FROM PREVIOUS STRESS PERIOD. CURRENT PERIOD IS:      42

 PROCESSING AG STRESS PERIOD DATA

 READING AG STRESS PERIOD DATA

 READING IRRIGATION SEGMENT

 READING IRRIGATION WELL

 READING SUPPLEMENTAL WELL

 END PROCESSING AG STRESS PERIOD DATA OPTIONS
 
 SOLVING FOR HEAD 
                                                   Max.-Head-Change                         Max.-Flux-Residual
  Residual-Control   Outer-Iter.   Inner-Iter.     Column Row Layer    Maximum-Head-Change  Column Row Layer    Maximum-Flux-Residual          L2-NORM 
          0                 1           2             3   13     1      -0.3709705978E-02       3   13    1        -0.2195024221E+00      0.5108769941E+00
          0                 2           2             4   13     1      -0.2345304566E-02       4   13    1        -0.1398699517E+00      0.2435097422E+00
          0                 3           2             4   13     1       0.2259888879E-03       4   13    1         0.1385854545E-01      0.2351109080E-01
          0                 4           1             4   13     1      -0.1519285265E-04       4   13    1        -0.9579903808E-03      0.1577054001E-02

    ------------------------------------------------
       NWT REQUIRED            4 OUTER ITERATIONS 
       AND A TOTAL OF          7 INNER ITERATIONS.
    ------------------------------------------------

 NO OUTPUT CONTROL FOR STRESS PERIOD   42   TIME STEP    1
 
 SOLVING FOR HEAD 
                                                   Max.-Head-Change                         Max.-Flux-Residual
  Residual-Control   Outer-Iter.   Inner-Iter.     Column Row Layer    Maximum-Head-Change  Column Row Layer    Maximum-Flux-Residual          L2-NORM 
          0                 1           2             3   13     1      -0.2990353132E-02       3   13    1        -0.1769474764E+00      0.4678506582E+00
          0                 2           2             4   13     1      -0.2324809487E-02       4   13    1        -0.1386648561E+00      0.2398546575E+00
          0                 3           2             4   13     1       0.2240075655E-03       4   13    1         0.1373862907E-01      0.2315432567E-01
          0                 4           1             4   13     1      -0.1506084672E-04       4   13    1        -0.9497656283E-03      0.1552582150E-02

    ------------------------------------------------
       NWT REQUIRED            4 OUTER ITERATIONS 
       AND A TOTAL OF          7 INNER ITERATIONS.
    ------------------------------------------------

 NO OUTPUT CONTROL FOR STRESS PERIOD   42   TIME STEP    2
 
 SOLVING FOR HEAD 
                                                   Max.-Head-Change                         Max.-Flux-Residual
  Residual-Control   Outer-Iter.   Inner-Iter.     Column Row Layer    Maximum-Head-Change  Column Row Layer    Maximum-Flux-Residual          L2-NORM 
          0                 1           2             1    1     1       0.2589711890E-02       3   13    1        -0.1400798876E+00      0.4350667844E+00
          0                 2           2             4   13     1      -0.2400353033E-02       4   13    1        -0.1431787182E+00      0.2463912444E+00
          0                 3           2             4   13     1       0.2312957668E-03       4   13    1         0.1418629513E-01      0.2379601537E-01
          0                 4           1             4   13     1      -0.1554738732E-04       4   13    1        -0.9804877745E-03      0.1596041607E-02

    ------------------------------------------------
       NWT REQUIRED            4 OUTER ITERATIONS 
       AND A TOTAL OF          7 INNER ITERATIONS.
    ------------------------------------------------

 NO OUTPUT CONTROL FOR STRESS PERIOD   42   TIME STEP    3
 
 SOLVING FOR HEAD 
                                                   Max.-Head-Change                         Max.-Flux-Residual
  Residual-Control   Outer-Iter.   Inner-Iter.     Column Row Layer    Maximum-Head-Change  Column Row Layer    Maximum-Flux-Residual          L2-NORM 
          0                 1           2             1    1     1       0.2587762427E-02       1    1    1         0.1342990636E+00      0.4103720490E+00
          0                 2           2             4   13     1      -0.2464587637E-02       4   13    1        -0.1470162151E+00      0.2520604302E+00
          0                 3           2             4   13     1       0.2374938632E-03       4   13    1         0.1456697758E-01      0.2434972336E-01
          0                 4           1             4   13     1      -0.1596886408E-04       4   13    1        -0.1007101182E-02      0.1633978369E-02

    ------------------------------------------------
       NWT REQUIRED            4 OUTER ITERATIONS 
       AND A TOTAL OF          7 INNER ITERATIONS.
    ------------------------------------------------

 NO OUTPUT CONTROL FOR STRESS PERIOD   42   TIME STEP    4
 
 SOLVING FOR HEAD 
                                                   Max.-Head-Change                         Max.-Flux-Residual
  Residual-Control   Outer-Iter.   Inner-Iter.     Column Row Layer    Maximum-Head-Change  Column Row Layer    Maximum-Flux-Residual          L2-NORM 
          0                 1           2             1    1     1       0.2585795036E-02       1    1    1         0.1341967705E+00      0.3925260610E+00
          0                 2           2             4   13     1      -0.2519324434E-02       4   13    1        -0.1502855402E+00      0.2569996225E+00
          0                 3           2             4   13     1       0.2427568352E-03       4   13    1         0.1489009167E-01      0.2483326423E-01
          0                 4           1             4   13     1      -0.1631071696E-04       4   13    1        -0.1028672242E-02      0.1665732123E-02

    ------------------------------------------------
       NWT REQUIRED            4 OUTER ITERATIONS 
       AND A TOTAL OF          7 INNER ITERATIONS.
    ------------------------------------------------

 NO OUTPUT CONTROL FOR STRESS PERIOD   42   TIME STEP    5
 
 SOLVING FOR HEAD 
                                                   Max.-Head-Change                         Max.-Flux-Residual
  Residual-Control   Outer-Iter.   Inner-Iter.     Column Row Layer    Maximum-Head-Change  Column Row Layer    Maximum-Flux-Residual          L2-NORM 
          0                 1           2             1    1     1       0.2583833198E-02       1    1    1         0.1340947643E+00      0.3802978217E+00
          0                 2           2             4   13     1      -0.2318540259E-02       4   13    1        -0.1383275363E+00      0.2360429271E+00
          0                 3           2             4   13     1       0.2234296286E-03       4   13    1         0.1370651523E-01      0.2278752382E-01
          0                 4           1             4   13     1      -0.1502386202E-04       4   13    1        -0.9476580872E-03      0.1527219324E-02

    ------------------------------------------------
       NWT REQUIRED            4 OUTER ITERATIONS 
       AND A TOTAL OF          7 INNER ITERATIONS.
    ------------------------------------------------

 NO OUTPUT CONTROL FOR STRESS PERIOD   42   TIME STEP    6
 
 SOLVING FOR HEAD 
                                                   Max.-Head-Change                         Max.-Flux-Residual
  Residual-Control   Outer-Iter.   Inner-Iter.     Column Row Layer    Maximum-Head-Change  Column Row Layer    Maximum-Flux-Residual          L2-NORM 
          0                 1           2             1    1     1       0.2581876889E-02       1    1    1         0.1339930459E+00      0.3728728343E+00
          0                 2           2             4   13     1      -0.2544838431E-02       4   13    1        -0.1560666896E+00      0.2662153423E+00
          0                 3           2             2   13     1       0.2244654388E-03       2   13    1         0.1301708790E-01      0.2236511026E-01
          0                 4           1             2   13     1      -0.2022459931E-04       2   13    1        -0.1205556286E-02      0.1993383263E-02

    ------------------------------------------------
       NWT REQUIRED            4 OUTER ITERATIONS 
       AND A TOTAL OF          7 INNER ITERATIONS.
    ------------------------------------------------

 NO OUTPUT CONTROL FOR STRESS PERIOD   42   TIME STEP    7
 
 SOLVING FOR HEAD 
                                                   Max.-Head-Change                         Max.-Flux-Residual
  Residual-Control   Outer-Iter.   Inner-Iter.     Column Row Layer    Maximum-Head-Change  Column Row Layer    Maximum-Flux-Residual          L2-NORM 
          0                 1           2             1    1     1       0.2579949481E-02       1    1    1         0.1338928309E+00      0.3683340341E+00
          0                 2           2             4   13     1      -0.2346828467E-02       4   13    1        -0.1439413280E+00      0.2452202791E+00
          0                 3           1             4   13     1      -0.5085057231E-04       4   13    1        -0.3155627800E-02      0.4144472651E-02

    ------------------------------------------------
       NWT REQUIRED            3 OUTER ITERATIONS 
       AND A TOTAL OF          5 INNER ITERATIONS.
    ------------------------------------------------

 NO OUTPUT CONTROL FOR STRESS PERIOD   42   TIME STEP    8
 
 SOLVING FOR HEAD 
                                                   Max.-Head-Change                         Max.-Flux-Residual
  Residual-Control   Outer-Iter.   Inner-Iter.     Column Row Layer    Maximum-Head-Change  Column Row Layer    Maximum-Flux-Residual          L2-NORM 
          0                 1           2             1    1     1       0.2578003397E-02       1    1    1         0.1337916451E+00      0.3664789291E+00
          0                 2           2             4   13     1      -0.2345492861E-02       4   13    1        -0.1438619450E+00      0.2449811724E+00
          0                 3           1             4   13     1      -0.8849053723E-04       4   13    1        -0.5427303707E-02      0.8435002427E-02

    ------------------------------------------------
       NWT REQUIRED            3 OUTER ITERATIONS 
       AND A TOTAL OF          5 INNER ITERATIONS.
    ------------------------------------------------

 NO OUTPUT CONTROL FOR STRESS PERIOD   42   TIME STEP    9
 
 SOLVING FOR HEAD 
                                                   Max.-Head-Change                         Max.-Flux-Residual
  Residual-Control   Outer-Iter.   Inner-Iter.     Column Row Layer    Maximum-Head-Change  Column Row Layer    Maximum-Flux-Residual          L2-NORM 
          0                 1           2             1    1     1       0.2576062775E-02       1    1    1         0.1336907436E+00      0.3665319986E+00
          0                 2           2             4   13     1      -0.2329491490E-02       4   13    1        -0.1428832604E+00      0.2432904847E+00
          0                 3           2             4   13     1      -0.1241587375E-03       4   13    1        -0.7613899400E-02      0.1196693048E-01
          0                 4           1             2   13     1      -0.7483513864E-04       4   13    1        -0.4376060592E-02      0.7637537340E-02

    ------------------------------------------------
       NWT REQUIRED            4 OUTER ITERATIONS 
       AND A TOTAL OF          7 INNER ITERATIONS.
    ------------------------------------------------

 NO OUTPUT CONTROL FOR STRESS PERIOD   42   TIME STEP   10
 
 SOLVING FOR HEAD 
                                                   Max.-Head-Change                         Max.-Flux-Residual
  Residual-Control   Outer-Iter.   Inner-Iter.     Column Row Layer    Maximum-Head-Change  Column Row Layer    Maximum-Flux-Residual          L2-NORM 
          0                 1           2             1    1     1       0.2574128254E-02       1    1    1         0.1335901612E+00      0.3680474879E+00
          0                 2           2             4   13     1      -0.2353603457E-02       4   13    1        -0.1443903543E+00      0.2429517308E+00
          0                 3           2             4   13     1      -0.2090011354E-03       4   13    1        -0.1238056558E-01      0.1883111799E-01
          0                 4           1             4   13     1      -0.7589853666E-04       4   13    1        -0.4482972754E-02      0.7974990447E-02

    ------------------------------------------------
       NWT REQUIRED            4 OUTER ITERATIONS 
       AND A TOTAL OF          7 INNER ITERATIONS.
    ------------------------------------------------

 NO OUTPUT CONTROL FOR STRESS PERIOD   42   TIME STEP   11
 
 SOLVING FOR HEAD 
                                                   Max.-Head-Change                         Max.-Flux-Residual
  Residual-Control   Outer-Iter.   Inner-Iter.     Column Row Layer    Maximum-Head-Change  Column Row Layer    Maximum-Flux-Residual          L2-NORM 
          0                 1           2             1    1     1       0.2572199147E-02       1    1    1         0.1334898593E+00      0.3698987584E+00
          0                 2           2             4   13     1      -0.2412051110E-02       4   13    1        -0.1425995392E+00      0.2432819079E+00
          0                 3           2             2   13     1      -0.1657895821E-03       2   13    1        -0.9628716629E-02      0.1665753835E-01
          0                 4           1             4   13     1      -0.8260237494E-04       4   13    1        -0.4881080251E-02      0.8436370192E-02

    ------------------------------------------------
       NWT REQUIRED            4 OUTER ITERATIONS 
       AND A TOTAL OF          7 INNER ITERATIONS.
    ------------------------------------------------

 NO OUTPUT CONTROL FOR STRESS PERIOD   42   TIME STEP   12
 
 SOLVING FOR HEAD 
                                                   Max.-Head-Change                         Max.-Flux-Residual
  Residual-Control   Outer-Iter.   Inner-Iter.     Column Row Layer    Maximum-Head-Change  Column Row Layer    Maximum-Flux-Residual          L2-NORM 
          0                 1           2             1    1     1       0.2570298859E-02       1    1    1         0.1333910551E+00      0.3723811579E+00
          0                 2           2             4   13     1      -0.2425389680E-02       4   13    1        -0.1433848479E+00      0.2450227007E+00
          0                 3           2             2   13     1      -0.1611986747E-03       2   13    1        -0.9362626692E-02      0.1617615034E-01
          0                 4           1             4   13     1      -0.8596513279E-04       4   13    1        -0.5079724750E-02      0.8786470135E-02

    ------------------------------------------------
       NWT REQUIRED            4 OUTER ITERATIONS 
       AND A TOTAL OF          7 INNER ITERATIONS.
    ------------------------------------------------

 NO OUTPUT CONTROL FOR STRESS PERIOD   42   TIME STEP   13
 
 SOLVING FOR HEAD 
                                                   Max.-Head-Change                         Max.-Flux-Residual
  Residual-Control   Outer-Iter.   Inner-Iter.     Column Row Layer    Maximum-Head-Change  Column Row Layer    Maximum-Flux-Residual          L2-NORM 
          0                 1           2             1    1     1       0.2568380438E-02       1    1    1         0.1332913110E+00      0.3752680109E+00
          0                 2           2             4   13     1      -0.2437528109E-02       4   13    1        -0.1440995222E+00      0.2466142364E+00
          0                 3           2             2   13     1      -0.1566754607E-03       2   13    1        -0.9100466493E-02      0.1570232702E-01
          0                 4           1             4   13     1      -0.8926162077E-04       4   13    1        -0.5274480372E-02      0.9127882216E-02

    ------------------------------------------------
       NWT REQUIRED            4 OUTER ITERATIONS 
       AND A TOTAL OF          7 INNER ITERATIONS.
    ------------------------------------------------

 NO OUTPUT CONTROL FOR STRESS PERIOD   42   TIME STEP   14
 
 SOLVING FOR HEAD 
                                                   Max.-Head-Change                         Max.-Flux-Residual
  Residual-Control   Outer-Iter.   Inner-Iter.     Column Row Layer    Maximum-Head-Change  Column Row Layer    Maximum-Flux-Residual          L2-NORM 
          0                 1           2             1    1     1       0.2566467362E-02       1    1    1         0.1331918438E+00      0.3783846917E+00
          0                 2           2             4   13     1      -0.2448444360E-02       4   13    1        -0.1447423335E+00      0.2480487927E+00
          0                 3           2             2   13     1      -0.1519047676E-03       2   13    1        -0.8823886886E-02      0.1520567741E-01
          0                 4           1             4   13     1      -0.9284104564E-04       4   13    1        -0.5485976213E-02      0.9496605236E-02

    ------------------------------------------------
       NWT REQUIRED            4 OUTER ITERATIONS 
       AND A TOTAL OF          7 INNER ITERATIONS.
    ------------------------------------------------

 NO OUTPUT CONTROL FOR STRESS PERIOD   42   TIME STEP   15
 
 SOLVING FOR HEAD 
                                                   Max.-Head-Change                         Max.-Flux-Residual
  Residual-Control   Outer-Iter.   Inner-Iter.     Column Row Layer    Maximum-Head-Change  Column Row Layer    Maximum-Flux-Residual          L2-NORM 
          0                 1           2             1    1     1       0.2564559607E-02       1    1    1         0.1330926536E+00      0.3816149741E+00
          0                 2           2             4   13     1      -0.2458201811E-02       4   13    1        -0.1453168498E+00      0.2493449310E+00
          0                 3           2             2   13     1      -0.1501803920E-03       2   13    1        -0.8723959301E-02      0.1503054950E-01
          0                 4           1             4   13     1      -0.9415281112E-04       4   13    1        -0.5563469915E-02      0.9634111223E-02

    ------------------------------------------------
       NWT REQUIRED            4 OUTER ITERATIONS 
       AND A TOTAL OF          7 INNER ITERATIONS.
    ------------------------------------------------

 NO OUTPUT CONTROL FOR STRESS PERIOD   42   TIME STEP   16
 
 SOLVING FOR HEAD 
                                                   Max.-Head-Change                         Max.-Flux-Residual
  Residual-Control   Outer-Iter.   Inner-Iter.     Column Row Layer    Maximum-Head-Change  Column Row Layer    Maximum-Flux-Residual          L2-NORM 
          0                 1           2             1    1     1       0.2562657152E-02       1    1    1         0.1329937395E+00      0.3848626395E+00
          0                 2           2             4   13     1      -0.2469094883E-02       4   13    1        -0.1459585772E+00      0.2507334894E+00
          0                 3           2             2   13     1      -0.1484775365E-03       2   13    1        -0.8625284139E-02      0.1485696990E-01
          0                 4           1             4   13     1      -0.9399674617E-04       4   13    1        -0.5554226909E-02      0.9621008015E-02

    ------------------------------------------------
       NWT REQUIRED            4 OUTER ITERATIONS 
       AND A TOTAL OF          7 INNER ITERATIONS.
    ------------------------------------------------

 NO OUTPUT CONTROL FOR STRESS PERIOD   42   TIME STEP   17
 
 SOLVING FOR HEAD 
                                                   Max.-Head-Change                         Max.-Flux-Residual
  Residual-Control   Outer-Iter.   Inner-Iter.     Column Row Layer    Maximum-Head-Change  Column Row Layer    Maximum-Flux-Residual          L2-NORM 
          0                 1           2             1    1     1       0.2560759948E-02       1    1    1         0.1328951001E+00      0.3880643570E+00
          0                 2           2             4   13     1      -0.2475785543E-02       4   13    1        -0.1463522819E+00      0.2516756003E+00
          0                 3           2             2   13     1      -0.1491845890E-03       2   13    1        -0.8666344462E-02      0.1493641345E-01
          0                 4           1             4   13     1      -0.9439590540E-04       4   13    1        -0.5577802586E-02      0.9664666536E-02

    ------------------------------------------------
       NWT REQUIRED            4 OUTER ITERATIONS 
       AND A TOTAL OF          7 INNER ITERATIONS.
    ------------------------------------------------

 NO OUTPUT CONTROL FOR STRESS PERIOD   42   TIME STEP   18
 
 SOLVING FOR HEAD 
                                                   Max.-Head-Change                         Max.-Flux-Residual
  Residual-Control   Outer-Iter.   Inner-Iter.     Column Row Layer    Maximum-Head-Change  Column Row Layer    Maximum-Flux-Residual          L2-NORM 
          0                 1           2             1    1     1       0.2558867999E-02       1    1    1         0.1327967329E+00      0.3911837111E+00
          0                 2           2             4   13     1      -0.2485376996E-02       4   13    1        -0.1469173429E+00      0.2528964417E+00
          0                 3           2             2   13     1      -0.1473228675E-03       2   13    1        -0.8558462081E-02      0.1474501786E-01
          0                 4           1             4   13     1      -0.9417198126E-04       4   13    1        -0.5564548968E-02      0.9645182829E-02

    ------------------------------------------------
       NWT REQUIRED            4 OUTER ITERATIONS 
       AND A TOTAL OF          7 INNER ITERATIONS.
    ------------------------------------------------

 NO OUTPUT CONTROL FOR STRESS PERIOD   42   TIME STEP   19
 
 SOLVING FOR HEAD 
                                                   Max.-Head-Change                         Max.-Flux-Residual
  Residual-Control   Outer-Iter.   Inner-Iter.     Column Row Layer    Maximum-Head-Change  Column Row Layer    Maximum-Flux-Residual          L2-NORM 
          0                 1           2             1    1     1       0.2556981283E-02       1    1    1         0.1326986383E+00      0.3941832913E+00
          0                 2           2             4   13     1      -0.2487631783E-02       4   13    1        -0.1470492915E+00      0.2533555641E+00
          0                 3           2             2   13     1      -0.1501705240E-03       2   13    1        -0.8723629756E-02      0.1505083976E-01
          0                 4           1             4   13     1      -0.9505984836E-04       4   13    1        -0.5617016051E-02      0.9736588183E-02

    ------------------------------------------------
       NWT REQUIRED            4 OUTER ITERATIONS 
       AND A TOTAL OF          7 INNER ITERATIONS.
    ------------------------------------------------

 NO OUTPUT CONTROL FOR STRESS PERIOD   42   TIME STEP   20
 
 SOLVING FOR HEAD 
                                                   Max.-Head-Change                         Max.-Flux-Residual
  Residual-Control   Outer-Iter.   Inner-Iter.     Column Row Layer    Maximum-Head-Change  Column Row Layer    Maximum-Flux-Residual          L2-NORM 
          0                 1           2             1    1     1       0.2555099779E-02       1    1    1         0.1326008150E+00      0.3970404823E+00
          0                 2           2             4   13     1      -0.2493714623E-02       4   13    1        -0.1474073294E+00      0.2541885924E+00
          0                 3           2             2   13     1      -0.1499075926E-03       2   13    1        -0.8694982720E-02      0.1559178930E-01
          0                 4           1             4   13     1      -0.9520575566E-04       4   13    1        -0.5625637806E-02      0.9736075595E-02

    ------------------------------------------------
       NWT REQUIRED            4 OUTER ITERATIONS 
       AND A TOTAL OF          7 INNER ITERATIONS.
    ------------------------------------------------

 NO OUTPUT CONTROL FOR STRESS PERIOD   42   TIME STEP   21
 
 SOLVING FOR HEAD 
                                                   Max.-Head-Change                         Max.-Flux-Residual
  Residual-Control   Outer-Iter.   Inner-Iter.     Column Row Layer    Maximum-Head-Change  Column Row Layer    Maximum-Flux-Residual          L2-NORM 
          0                 1           2             1    1     1       0.2553223438E-02       1    1    1         0.1325032619E+00      0.3997473351E+00
          0                 2           2             4   13     1      -0.2499183433E-02       4   13    1        -0.1477291398E+00      0.2549465120E+00
          0                 3           2             2   13     1      -0.1496917486E-03       2   13    1        -0.8682428651E-02      0.1557655047E-01
          0                 4           1             4   13     1      -0.9530433124E-04       4   13    1        -0.5631436596E-02      0.9748382333E-02

    ------------------------------------------------
       NWT REQUIRED            4 OUTER ITERATIONS 
       AND A TOTAL OF          7 INNER ITERATIONS.
    ------------------------------------------------

 NO OUTPUT CONTROL FOR STRESS PERIOD   42   TIME STEP   22
 
 SOLVING FOR HEAD 
                                                   Max.-Head-Change                         Max.-Flux-Residual
  Residual-Control   Outer-Iter.   Inner-Iter.     Column Row Layer    Maximum-Head-Change  Column Row Layer    Maximum-Flux-Residual          L2-NORM 
          0                 1           2             1    1     1       0.2551352266E-02       1    1    1         0.1324059765E+00      0.4023019544E+00
          0                 2           2             4   13     1      -0.2504113870E-02       4   13    1        -0.1480191919E+00      0.2556375697E+00
          0                 3           2             2   13     1      -0.1495210785E-03       2   13    1        -0.8672497135E-02      0.1556475680E-01
          0                 4           1             4   13     1      -0.9543983211E-04       4   13    1        -0.5639448421E-02      0.9762768041E-02

    ------------------------------------------------
       NWT REQUIRED            4 OUTER ITERATIONS 
       AND A TOTAL OF          7 INNER ITERATIONS.
    ------------------------------------------------

 NO OUTPUT CONTROL FOR STRESS PERIOD   42   TIME STEP   23
 
 SOLVING FOR HEAD 
                                                   Max.-Head-Change                         Max.-Flux-Residual
  Residual-Control   Outer-Iter.   Inner-Iter.     Column Row Layer    Maximum-Head-Change  Column Row Layer    Maximum-Flux-Residual          L2-NORM 
          0                 1           2             1    1     1       0.2549486240E-02       4   13    1         0.1331230177E+00      0.4046922342E+00
          0                 2           2             4   13     1      -0.2508555782E-02       4   13    1        -0.1482804534E+00      0.2562666391E+00
          0                 3           2             2   13     1      -0.1493930298E-03       2   13    1        -0.8665055193E-02      0.1555755158E-01
          0                 4           1             4   13     1      -0.9553832960E-04       4   13    1        -0.5645233216E-02      0.9776475366E-02

    ------------------------------------------------
       NWT REQUIRED            4 OUTER ITERATIONS 
       AND A TOTAL OF          7 INNER ITERATIONS.
    ------------------------------------------------

 NO OUTPUT CONTROL FOR STRESS PERIOD   42   TIME STEP   24
 
 SOLVING FOR HEAD 
                                                   Max.-Head-Change                         Max.-Flux-Residual
  Residual-Control   Outer-Iter.   Inner-Iter.     Column Row Layer    Maximum-Head-Change  Column Row Layer    Maximum-Flux-Residual          L2-NORM 
          0                 1           2             1    1     1       0.2547625340E-02       4   13    1         0.1355561483E+00      0.4069260980E+00
          0                 2           2             4   13     1      -0.2512555254E-02       4   13    1        -0.1485156116E+00      0.2568410177E+00
          0                 3           2             2   13     1      -0.1493083939E-03       2   13    1        -0.8660117053E-02      0.1558951323E-01
          0                 4           1             4   13     1      -0.9565398919E-04       4   13    1        -0.5652311112E-02      0.9786962060E-02

    ------------------------------------------------
       NWT REQUIRED            4 OUTER ITERATIONS 
       AND A TOTAL OF          7 INNER ITERATIONS.
    ------------------------------------------------

 NO OUTPUT CONTROL FOR STRESS PERIOD   42   TIME STEP   25
 
 SOLVING FOR HEAD 
                                                   Max.-Head-Change                         Max.-Flux-Residual
  Residual-Control   Outer-Iter.   Inner-Iter.     Column Row Layer    Maximum-Head-Change  Column Row Layer    Maximum-Flux-Residual          L2-NORM 
          0                 1           2             1    1     1       0.2545769545E-02       4   13    1         0.1377636695E+00      0.4090009271E+00
          0                 2           2             4   13     1      -0.2516109567E-02       4   13    1        -0.1487244893E+00      0.2573617969E+00
          0                 3           2             2   13     1      -0.1492484522E-03       2   13    1        -0.8656616477E-02      0.1558940018E-01
          0                 4           1             4   13     1      -0.9574380448E-04       4   13    1        -0.5657583712E-02      0.9799370921E-02

    ------------------------------------------------
       NWT REQUIRED            4 OUTER ITERATIONS 
       AND A TOTAL OF          7 INNER ITERATIONS.
    ------------------------------------------------

 NO OUTPUT CONTROL FOR STRESS PERIOD   42   TIME STEP   26
 
 SOLVING FOR HEAD 
                                                   Max.-Head-Change                         Max.-Flux-Residual
  Residual-Control   Outer-Iter.   Inner-Iter.     Column Row Layer    Maximum-Head-Change  Column Row Layer    Maximum-Flux-Residual          L2-NORM 
          0                 1           2             1    1     1       0.2543918833E-02       4   13    1         0.1397739358E+00      0.4109382868E+00
          0                 2           2             4   13     1      -0.2519331263E-02       4   13    1        -0.1489137690E+00      0.2578371037E+00
          0                 3           2             2   13     1      -0.1492422317E-03       2   13    1        -0.8656244917E-02      0.1559201140E-01
          0                 4           1             4   13     1      -0.9586381746E-04       4   13    1        -0.5664700038E-02      0.9811054892E-02

    ------------------------------------------------
       NWT REQUIRED            4 OUTER ITERATIONS 
       AND A TOTAL OF          7 INNER ITERATIONS.
    ------------------------------------------------

 NO OUTPUT CONTROL FOR STRESS PERIOD   42   TIME STEP   27
 
 SOLVING FOR HEAD 
                                                   Max.-Head-Change                         Max.-Flux-Residual
  Residual-Control   Outer-Iter.   Inner-Iter.     Column Row Layer    Maximum-Head-Change  Column Row Layer    Maximum-Flux-Residual          L2-NORM 
          0                 1           2             1    1     1       0.2542073156E-02       4   13    1         0.1416058930E+00      0.4127281090E+00
          0                 2           2             4   13     1      -0.2522210718E-02       4   13    1        -0.1490828501E+00      0.2582704069E+00
          0                 3           2             2   13     1      -0.1492393273E-03       2   13    1        -0.8656035940E-02      0.1559793761E-01
          0                 4           1             4   13     1      -0.9597346440E-04       4   13    1        -0.5671188021E-02      0.9822608078E-02

    ------------------------------------------------
       NWT REQUIRED            4 OUTER ITERATIONS 
       AND A TOTAL OF          7 INNER ITERATIONS.
    ------------------------------------------------

 NO OUTPUT CONTROL FOR STRESS PERIOD   42   TIME STEP   28
 
 SOLVING FOR HEAD 
                                                   Max.-Head-Change                         Max.-Flux-Residual
  Residual-Control   Outer-Iter.   Inner-Iter.     Column Row Layer    Maximum-Head-Change  Column Row Layer    Maximum-Flux-Residual          L2-NORM 
          0                 1           2             1    1     1       0.2540232521E-02       4   13    1         0.1432696207E+00      0.4143865039E+00
          0                 2           2             4   13     1      -0.2524665614E-02       4   13    1        -0.1492268207E+00      0.2586595604E+00
          0                 3           2             2   13     1      -0.1493007789E-03       2   13    1        -0.8659598431E-02      0.1561116014E-01
          0                 4           1             4   13     1      -0.9606309150E-04       4   13    1        -0.5676457204E-02      0.9834447481E-02

    ------------------------------------------------
       NWT REQUIRED            4 OUTER ITERATIONS 
       AND A TOTAL OF          7 INNER ITERATIONS.
    ------------------------------------------------

 NO OUTPUT CONTROL FOR STRESS PERIOD   42   TIME STEP   29
 
 SOLVING FOR HEAD 
                                                   Max.-Head-Change                         Max.-Flux-Residual
  Residual-Control   Outer-Iter.   Inner-Iter.     Column Row Layer    Maximum-Head-Change  Column Row Layer    Maximum-Flux-Residual          L2-NORM 
          0                 1           2             1    1     1       0.2538396924E-02       4   13    1         0.1447817947E+00      0.4159200014E+00
          0                 2           2             4   13     1      -0.2527027258E-02       4   13    1        -0.1493653764E+00      0.2590208950E+00
          0                 3           2             2   13     1      -0.1493680340E-03       2   13    1        -0.8663483535E-02      0.1561984894E-01
          0                 4           1             4   13     1      -0.9616539326E-04       4   13    1        -0.5682491855E-02      0.9846951408E-02

    ------------------------------------------------
       NWT REQUIRED            4 OUTER ITERATIONS 
       AND A TOTAL OF          7 INNER ITERATIONS.
    ------------------------------------------------

 NO OUTPUT CONTROL FOR STRESS PERIOD   42   TIME STEP   30



 STREAM LISTING     PERIOD     42   STEP       30

 LAYER ROW COL. STREAM  RCH.  FLOW INTO     FLOW TO   FLOW OUT OF   OVRLND.     DIRECT     STREAM       STREAM     STREAM     STREAM   STREAMBED  STREAMBED
                SEG.NO.  NO.  STRM. RCH.    AQUIFER    STRM. RCH.    RUNOFF     PRECIP       ET          HEAD       DEPTH      WIDTH   CONDCTNC.   GRADIENT

   1    1    1     1     1    4.7249E+01  3.2762E-01   4.6921E+01  0.000E+00  0.000E+00  0.000E+00  1.09443E+03  1.381E+00  1.662E+01  7.477E-02  1.460E+00
   1    2    2     1     2    4.6921E+01  5.0759E-01   4.6413E+01  0.000E+00  0.000E+00  0.000E+00  1.08944E+03  1.379E+00  1.656E+01  1.159E-01  1.460E+00
   1    3    3     1     3    4.6413E+01  4.3309E-01   4.5980E+01  0.000E+00  0.000E+00  0.000E+00  1.08379E+03  1.376E+00  1.650E+01  9.898E-02  1.459E+00
   1    3    4     1     4    4.5980E+01  3.9899E-01   4.5581E+01  0.000E+00  0.000E+00  0.000E+00  1.07878E+03  1.373E+00  1.644E+01  9.124E-02  1.458E+00
   1    4    5     2     1    4.3581E+01  3.6514E-01   4.3216E+01  0.000E+00  0.000E+00  0.000E+00  1.07362E+03  1.681E+00  1.200E+01  7.800E-02  1.560E+00
   1    5    6     2     2    4.3216E+01  2.8042E-01   4.2936E+01  0.000E+00  0.000E+00  0.000E+00  1.06818E+03  1.674E+00  1.200E+01  6.000E-02  1.558E+00
   1    6    6     2     3    4.2936E+01  2.8003E-01   4.2656E+01  0.000E+00  0.000E+00  0.000E+00  1.06346E+03  1.667E+00  1.200E+01  6.000E-02  1.556E+00
   1    7    6     2     4    4.2656E+01  2.7964E-01   4.2376E+01  0.000E+00  0.000E+00  0.000E+00  1.05874E+03  1.661E+00  1.200E+01  6.000E-02  1.554E+00
   1    8    6     2     5    4.2376E+01  2.7924E-01   4.2097E+01  0.000E+00  0.000E+00  0.000E+00  1.05401E+03  1.654E+00  1.200E+01  6.000E-02  1.551E+00
   1    3    5     3     1    2.0000E+00  2.8252E-01   1.7175E+00  0.000E+00  0.000E+00  0.000E+00  1.07555E+03  1.909E+00  9.636E+00  7.227E-02  1.955E+00
   1    3    6     3     2    1.7175E+00  2.4905E-01   1.4684E+00  0.000E+00  0.000E+00  0.000E+00  1.07264E+03  1.727E+00  8.909E+00  6.682E-02  1.864E+00
   1    3    7     3     3    1.4684E+00  1.9718E-01   1.2712E+00  0.000E+00  0.000E+00  0.000E+00  1.06987E+03  1.555E+00  8.218E+00  5.547E-02  1.777E+00
   1    4    8     3     4    1.2712E+00  2.2567E-01   1.0456E+00  0.000E+00  0.000E+00  0.000E+00  1.06682E+03  1.364E+00  7.455E+00  6.709E-02  1.682E+00
   1    5    8     3     5    1.0456E+00  1.5790E-01   8.8768E-01  0.000E+00  0.000E+00  0.000E+00  1.06362E+03  1.164E+00  6.655E+00  4.991E-02  1.582E+00
   1    6    8     3     6    8.8768E-01  5.5980E-02   8.3170E-01  0.000E+00  0.000E+00  0.000E+00  1.06158E+03  1.036E+00  6.145E+00  1.844E-02  1.518E+00
   1    5   10     4     1    1.0000E+01  9.0919E-02   9.9091E+00  0.000E+00  0.000E+00  0.000E+00  1.07836E+03  6.368E-01  1.000E+01  2.500E-02  1.212E+00
   1    5    9     4     2    9.9091E+00  1.8158E-01   9.7275E+00  0.000E+00  0.000E+00  0.000E+00  1.07154E+03  6.315E-01  1.000E+01  5.000E-02  1.211E+00
   1    6    8     4     3    9.7275E+00  1.2689E-01   9.6006E+00  0.000E+00  0.000E+00  0.000E+00  1.06381E+03  6.256E-01  1.000E+01  3.500E-02  1.209E+00
   1    6    8     5     1    1.0432E+01  2.2686E-01   1.0205E+01  0.000E+00  0.000E+00  0.000E+00  1.05868E+03  6.790E-01  1.542E+01  6.166E-02  1.226E+00
   1    7    7     5     2    1.0205E+01  2.7894E-01   9.9265E+00  0.000E+00  0.000E+00  0.000E+00  1.05417E+03  6.732E-01  1.519E+01  7.594E-02  1.224E+00
   1    8    7     5     3    9.9265E+00  1.9221E-01   9.7343E+00  0.000E+00  0.000E+00  0.000E+00  1.04992E+03  6.676E-01  1.497E+01  5.241E-02  1.223E+00
   1    8    6     5     4    9.7343E+00  1.3577E-01   9.5985E+00  0.000E+00  0.000E+00  0.000E+00  1.04691E+03  6.637E-01  1.482E+01  3.706E-02  1.221E+00
   1    9    6     6     1    4.4430E+01  2.8338E-01   4.4147E+01  0.000E+00  0.000E+00  0.000E+00  1.04445E+03  1.723E+00  1.200E+01  6.000E-02  1.574E+00
   1   10    7     6     2    4.4147E+01  2.8299E-01   4.3864E+01  0.000E+00  0.000E+00  0.000E+00  1.03990E+03  1.716E+00  1.200E+01  6.000E-02  1.572E+00
   1   11    7     6     3    4.3864E+01  2.8259E-01   4.3581E+01  0.000E+00  0.000E+00  0.000E+00  1.03535E+03  1.710E+00  1.200E+01  6.000E-02  1.570E+00
   1   12    7     6     4    4.3581E+01  2.8219E-01   4.3299E+01  0.000E+00  0.000E+00  0.000E+00  1.03079E+03  1.703E+00  1.200E+01  6.000E-02  1.568E+00
   1   13    7     6     5    4.3299E+01  1.2569E-02   4.3286E+01  0.000E+00  0.000E+00  0.000E+00  1.02761E+03  1.700E+00  1.200E+01  2.400E-02  1.746E-01
   1   14    9     7     1    1.5000E+02  1.3433E+00   1.4866E+02  0.000E+00  0.000E+00  0.000E+00  1.03987E+03  2.288E+00  5.529E+01  5.593E-01  8.006E-01
   1   13    8     7     2    1.4866E+02  1.8426E+00   1.4681E+02  0.000E+00  0.000E+00  0.000E+00  1.03478E+03  2.279E+00  5.526E+01  6.148E-01  9.991E-01
   1   13    7     7     3    1.4681E+02  1.4546E+00   1.4536E+02  0.000E+00  0.000E+00  0.000E+00  1.02969E+03  2.270E+00  5.522E+01  5.584E-01  8.682E-01
   1   13    6     8     1    1.8865E+02  9.7306E-01   1.8767E+02  0.000E+00  0.000E+00  0.000E+00  1.02494E+03  3.067E+00  4.448E+01  4.532E-01  7.157E-01
   1   13    5     8     2    1.8767E+02  1.8977E-01   1.8748E+02  0.000E+00  0.000E+00  0.000E+00  1.01869E+03  3.064E+00  4.442E+01  4.527E-01  1.397E-01
   1   13    4     8     3    1.8748E+02 -2.4514E+00   1.8993E+02  0.000E+00  0.000E+00  0.000E+00  1.01245E+03  3.071E+00  4.452E+01  4.537E+00 -1.801E-01
   1   13    3     8     4    1.8993E+02 -3.6374E+00   1.9357E+02  0.000E+00  0.000E+00  0.000E+00  1.00621E+03  3.089E+00  4.479E+01  4.565E+00 -2.656E-01
   1   13    2     8     5    1.9357E+02 -2.5834E+00   1.9616E+02  0.000E+00  0.000E+00  0.000E+00  9.99983E+02  3.108E+00  4.506E+01  4.592E+00 -1.875E-01
   1   13    1     8     6    1.9616E+02 -2.0145E+00   1.9817E+02  0.000E+00  0.000E+00  0.000E+00  9.94997E+02  3.122E+00  4.526E+01  2.767E+00 -2.426E-01
   1    8    6     9     1    7.2654E+00  0.0000E+00   7.2654E+00  0.000E+00  0.000E+00  0.000E+00  1.08061E+03  1.856E+00  4.000E+00  0.000E+00  1.619E+00
   1    8    5     9     2    7.2654E+00  0.0000E+00   7.2654E+00  0.000E+00  0.000E+00  0.000E+00  1.08011E+03  1.856E+00  4.000E+00  0.000E+00  1.619E+00





UNSATURATED ZONE PACKAGE VOLUMETRIC BUDGET FOR  TIME STEP    30 STRESS PERIOD   42
  ------------------------------------------------------------------------------



     CUMULATIVE VOLUMES      L**3       RATES FOR THIS TIME STEP      L**3/T
     ------------------                 ------------------------

           IN:                                      IN:
           ---                                      ---
        INFILTRATION =  1685194744.9207          INFILTRATION =          11.6730

          OUT:                                     OUT:
          ----                                     ----
              UZF ET =  1553061786.1565                UZF ET =          11.5762
        UZF RECHARGE =     1884068.5034          UZF RECHARGE =       0.0000E+00

            IN - OUT =   130248890.2608              IN - OUT =       9.6832E-02

          STORAGE:                                 STORAGE:
          --------                                 --------
      STORAGE CHANGE =   130250737.5635        STORAGE CHANGE =       9.6832E-02

 PERCENT DISCREPANCY IS DIFFERENCE BETWEEN IN-OUT MINUS CHANGE IN STORAGE
 DIVIDED BY THE AVERAGE OF IN AND OUT TIMES 100

 PERCENT DISCREPANCY =          -0.00     PERCENT DISCREPANCY =           0.00






1
  VOLUMETRIC BUDGET FOR AGRICULTURAL FIELDS AT TIME STEP   30, STRESS PERIOD  42
  ------------------------------------------------------------------------------

     CUMULATIVE VOLUMES      L**3       RATES FOR THIS TIME STEP      L**3/T
     ------------------                 ------------------------

           IN:                                      IN:
           ---                                      ---
               AG WELLS  =   218905344.0000                 AG WELLS  =           0.0000
      DIVERSION SEGMENTS =   990937664.0000        DIVERSION SEGMENTS =           7.2654
           GW IRRIGATION =           0.0000             GW IRRIGATION =           0.0000
           SW IRRIGATION =           0.0000             SW IRRIGATION =           0.0000
        SYSTEM LOSSES GW =           0.0000          SYSTEM LOSSES GW =           0.0000
        SYSTEM LOSSES SW =           0.0000          SYSTEM LOSSES SW =           0.0000

                TOTAL IN =  1209842944.0000                  TOTAL IN =           7.2654

          OUT:                                     OUT:
          ----                                     ----
               AG WELLS  =           0.0000                 AG WELLS  =           0.0000
      DIVERSION SEGMENTS =           0.0000        DIVERSION SEGMENTS =           0.0000
           GW IRRIGATION =   218905344.0000             GW IRRIGATION =           0.0000
           SW IRRIGATION =   990957632.0000             SW IRRIGATION =           7.2655
        SYSTEM LOSSES GW =           0.0000          SYSTEM LOSSES GW =           0.0000
        SYSTEM LOSSES SW =           0.0000          SYSTEM LOSSES SW =           0.0000

               TOTAL OUT =  1209862912.0000                 TOTAL OUT =           7.2655

                IN - OUT =      -19968.0000                  IN - OUT =      -1.4496E-04

     PERCENT DISCREPANCY =          -0.00         PERCENT DISCREPANCY =          -0.00



1
  VOLUMETRIC BUDGET FOR ENTIRE MODEL AT END OF TIME STEP   30, STRESS PERIOD  42
  ------------------------------------------------------------------------------

     CUMULATIVE VOLUMES      L**3       RATES FOR THIS TIME STEP      L**3/T
     ------------------                 ------------------------

           IN:                                      IN:
           ---                                      ---
             STORAGE     =   383000512.0000               STORAGE     =           0.4284
       CONSTANT HEAD     =           0.0000         CONSTANT HEAD     =           0.0000
     HEAD DEP BOUNDS     =    30850954.0000       HEAD DEP BOUNDS     =           0.2863
      STREAM LEAKAGE     =  1291808384.0000        STREAM LEAKAGE     =          12.5002
        UZF RECHARGE     =     1884068.8750          UZF RECHARGE     =           0.0000
               GW ET     =           0.0000                 GW ET     =           0.0000
     SURFACE LEAKAGE     =           0.0000       SURFACE LEAKAGE     =           0.0000
           AG WELLS      =           0.0000             AG WELLS      =           0.0000

                TOTAL IN =  1707543936.0000                  TOTAL IN =          13.2149

          OUT:                                     OUT:
          ----                                     ----
             STORAGE     =   290286592.0000               STORAGE     =           2.2065
       CONSTANT HEAD     =           0.0000         CONSTANT HEAD     =           0.0000
     HEAD DEP BOUNDS     =    31390264.0000       HEAD DEP BOUNDS     =           0.2935
      STREAM LEAKAGE     =  1163106048.0000        STREAM LEAKAGE     =          10.6869
        UZF RECHARGE     =           0.0000          UZF RECHARGE     =           0.0000
               GW ET     =     3808393.0000                 GW ET     =       2.6366E-02
     SURFACE LEAKAGE     =           0.0000       SURFACE LEAKAGE     =           0.0000
           AG WELLS      =   218905344.0000             AG WELLS      =           0.0000

               TOTAL OUT =  1707496576.0000                 TOTAL OUT =          13.2133

                IN - OUT =       47360.0000                  IN - OUT =       1.5841E-03

     PERCENT DISCREPANCY =           0.00         PERCENT DISCREPANCY =           0.01






         TIME SUMMARY AT END OF TIME STEP   30 IN STRESS PERIOD   42
                    SECONDS     MINUTES      HOURS       DAYS        YEARS
                    -----------------------------------------------------------
   TIME STEP LENGTH  87667.      1461.1      24.352      1.0147     2.77799E-03
 STRESS PERIOD TIME 2.63000E+06  43833.      730.56      30.440     8.33397E-02
         TOTAL TIME 1.07916E+08 1.79859E+06  29977.      1249.0      3.4196    
1
1
                            STRESS PERIOD NO.   43, LENGTH =   2630000.    
                            -----------------------------------------------

                              NUMBER OF TIME STEPS =    30

                               MULTIPLIER FOR DELT =     1.000

                            INITIAL TIME STEP SIZE =   87666.66    

 REUSING NON-PARAMETER GHB CELLS FROM LAST STRESS PERIOD

      2 GHB CELLS

 REUSING STREAM SEGMENT DATA FROM LAST STRESS PERIOD



            AREAL INFILTRATION RATE
 READING ON UNIT   19 WITH FORMAT: (10F4.0)            

            1           2           3           4           5           6           7           8           9          10
 ........................................................................................................................
   1   1.2000E-09   0.000       0.000       0.000       0.000       0.000       0.000       0.000       0.000       0.000    
   2   2.1000E-09  2.0000E-09  8.0000E-10  8.5000E-09   0.000       0.000       0.000       0.000       0.000       0.000    
   3   5.0000E-10  1.1000E-09  8.8000E-09  5.5000E-09   0.000       0.000       0.000       0.000       0.000       0.000    
   4   8.5000E-09  1.1000E-09  1.1000E-09  1.1000E-09  2.0000E-09   0.000       0.000       0.000       0.000       0.000    
   5   8.5000E-09  1.1000E-09  1.1000E-09  1.1000E-09  1.1000E-09   0.000       0.000       0.000       0.000       0.000    
   6   8.5000E-09  5.2000E-09  2.1000E-09  1.1000E-09  1.5000E-09   0.000       0.000       0.000       0.000       0.000    
   7   8.5000E-09  5.2000E-09  2.1000E-09  1.2000E-09  2.0000E-09   0.000       0.000       0.000       0.000       0.000    
   8   5.0000E-10  5.2000E-09  2.1000E-09  1.2000E-09  5.0000E-09   0.000       0.000       0.000       0.000       0.000    
   9   5.0000E-10  5.2000E-09  2.1000E-09  1.2000E-09  5.0000E-09   0.000       0.000       0.000       0.000       0.000    
  10   5.0000E-10  5.2000E-09  2.1000E-09  1.2000E-09  5.8000E-09   0.000       0.000       0.000       0.000       0.000    
  11   1.0000E-10  1.1000E-09  1.1000E-09  1.2000E-09  5.0000E-09   0.000       0.000       0.000       0.000       0.000    
  12   1.1000E-09  1.1000E-09  1.1000E-09  1.1000E-09  2.0000E-09   0.000       0.000       0.000       0.000       0.000    
  13   1.1000E-09  2.2000E-09  2.2000E-09  2.1000E-09  1.0000E-09   0.000       0.000       0.000       0.000       0.000    
  14   2.0000E-10  5.5000E-09  5.5000E-09  5.2000E-09  1.0000E-09   0.000       0.000       0.000       0.000       0.000    
  15    0.000      8.8000E-09  8.8000E-09   0.000       0.000       0.000       0.000       0.000       0.000       0.000    

                  ET RATE =  1.500000E-07

 USING ET EXTINCTION DEPTH FROM PREVIOUS STRESS PERIOD. CURRENT PERIOD IS:      43

 USING EXTINCTION WATER CONTENT FROM PREVIOUS STRESS PERIOD. CURRENT PERIOD IS:      43

 USING AIR ENTRY PRESSURE FROM PREVIOUS STRESS PERIOD. CURRENT PERIOD IS:      43

 USING ROOT PRESSURE HEAD FROM PREVIOUS STRESS PERIOD. CURRENT PERIOD IS:      43

 USING ROOT ACTIVITY FROM PREVIOUS STRESS PERIOD. CURRENT PERIOD IS:      43

 PROCESSING AG STRESS PERIOD DATA

 READING AG STRESS PERIOD DATA

 READING IRRIGATION SEGMENT

 READING IRRIGATION WELL

 READING SUPPLEMENTAL WELL

 END PROCESSING AG STRESS PERIOD DATA OPTIONS
 
 SOLVING FOR HEAD 
                                                   Max.-Head-Change                         Max.-Flux-Residual
  Residual-Control   Outer-Iter.   Inner-Iter.     Column Row Layer    Maximum-Head-Change  Column Row Layer    Maximum-Flux-Residual          L2-NORM 
          0                 1           2             1    1     1       0.2528243154E-02       4   13    1         0.1431294595E+00      0.4003862817E+00
          0                 2           2             4   13     1      -0.7199322928E-02       4   13    1        -0.4250383375E+00      0.7337220101E+00
          0                 3           2             4   13     1       0.3806770942E-03       4   13    1         0.2310727975E-01      0.3864485727E-01
          0                 4           1             4   13     1      -0.5647350278E-04       4   13    1        -0.3522734076E-02      0.5993035357E-02

    ------------------------------------------------
       NWT REQUIRED            4 OUTER ITERATIONS 
       AND A TOTAL OF          7 INNER ITERATIONS.
    ------------------------------------------------

 NO OUTPUT CONTROL FOR STRESS PERIOD   43   TIME STEP    1
 
 SOLVING FOR HEAD 
                                                   Max.-Head-Change                         Max.-Flux-Residual
  Residual-Control   Outer-Iter.   Inner-Iter.     Column Row Layer    Maximum-Head-Change  Column Row Layer    Maximum-Flux-Residual          L2-NORM 
          0                 1           2             1    1     1       0.2304154860E-02       1    1    1         0.1195638380E+00      0.3510856249E+00
          0                 2           2             4   13     1      -0.7096868227E-02       4   13    1        -0.4187602090E+00      0.7239350839E+00
          0                 3           2             2   13     1      -0.3738024389E-03       2   13    1        -0.2164169486E-01      0.3860273316E-01
          0                 4           2             4   13     1      -0.2440668903E-03       4   13    1        -0.1439252740E-01      0.2497183111E-01
          0                 5           1             4   13     1      -0.7050757131E-04       4   13    1        -0.4158721615E-02      0.7261486654E-02

    ------------------------------------------------
       NWT REQUIRED            5 OUTER ITERATIONS 
       AND A TOTAL OF          9 INNER ITERATIONS.
    ------------------------------------------------

 NO OUTPUT CONTROL FOR STRESS PERIOD   43   TIME STEP    2
 
 SOLVING FOR HEAD 
                                                   Max.-Head-Change                         Max.-Flux-Residual
  Residual-Control   Outer-Iter.   Inner-Iter.     Column Row Layer    Maximum-Head-Change  Column Row Layer    Maximum-Flux-Residual          L2-NORM 
          0                 1           2             1    1     1       0.2302724804E-02       4   13    1         0.1279167838E+00      0.3842201074E+00
          0                 2           2             4   13     1      -0.7176680942E-02       4   13    1        -0.4234570757E+00      0.7326418713E+00
          0                 3           2             3   13     1      -0.6770280363E-03       3   13    1        -0.3962823716E-01      0.5590841434E-01
          0                 4           2             4   13     1      -0.2541525132E-03       4   13    1        -0.1498508601E-01      0.2545281470E-01
          0                 5           1             4   13     1      -0.7660436082E-04       4   13    1        -0.4513144590E-02      0.7918503095E-02

    ------------------------------------------------
       NWT REQUIRED            5 OUTER ITERATIONS 
       AND A TOTAL OF          9 INNER ITERATIONS.
    ------------------------------------------------

 NO OUTPUT CONTROL FOR STRESS PERIOD   43   TIME STEP    3
 
 SOLVING FOR HEAD 
                                                   Max.-Head-Change                         Max.-Flux-Residual
  Residual-Control   Outer-Iter.   Inner-Iter.     Column Row Layer    Maximum-Head-Change  Column Row Layer    Maximum-Flux-Residual          L2-NORM 
          0                 1           2             4   13     1       0.2817324397E-02       4   13    1         0.1623655044E+00      0.4164045956E+00
          0                 2           2             4   13     1      -0.7254243081E-02       4   13    1        -0.4276528620E+00      0.7392468519E+00
          0                 3           2             2   13     1      -0.4492311941E-03       2   13    1        -0.2598925385E-01      0.4628215296E-01
          0                 4           2             4   13     1      -0.2598611910E-03       4   13    1        -0.1530985713E-01      0.2656185788E-01
          0                 5           1             4   13     1      -0.7859217483E-04       4   13    1        -0.4631081618E-02      0.8082895599E-02

    ------------------------------------------------
       NWT REQUIRED            5 OUTER ITERATIONS 
       AND A TOTAL OF          9 INNER ITERATIONS.
    ------------------------------------------------

 NO OUTPUT CONTROL FOR STRESS PERIOD   43   TIME STEP    4
 
 SOLVING FOR HEAD 
                                                   Max.-Head-Change                         Max.-Flux-Residual
  Residual-Control   Outer-Iter.   Inner-Iter.     Column Row Layer    Maximum-Head-Change  Column Row Layer    Maximum-Flux-Residual          L2-NORM 
          0                 1           2             4   13     1       0.3356879882E-02       4   13    1         0.1935424132E+00      0.4462825809E+00
          0                 2           2             4   13     1      -0.7318046544E-02       4   13    1        -0.4314310957E+00      0.7448514437E+00
          0                 3           2             2   13     1      -0.4453737439E-03       2   13    1        -0.2576574076E-01      0.4586198352E-01
          0                 4           2             4   13     1      -0.2637796456E-03       4   13    1        -0.1554086536E-01      0.2695210256E-01
          0                 5           1             4   13     1      -0.7954387448E-04       4   13    1        -0.4687152205E-02      0.8180777859E-02

    ------------------------------------------------
       NWT REQUIRED            5 OUTER ITERATIONS 
       AND A TOTAL OF          9 INNER ITERATIONS.
    ------------------------------------------------

 NO OUTPUT CONTROL FOR STRESS PERIOD   43   TIME STEP    5
 
 SOLVING FOR HEAD 
                                                   Max.-Head-Change                         Max.-Flux-Residual
  Residual-Control   Outer-Iter.   Inner-Iter.     Column Row Layer    Maximum-Head-Change  Column Row Layer    Maximum-Flux-Residual          L2-NORM 
          0                 1           2             4   13     1       0.3843944120E-02       4   13    1         0.2216754608E+00      0.4761112791E+00
          0                 2           2             4   13     1      -0.7375704796E-02       4   13    1        -0.4348442468E+00      0.7500076592E+00
          0                 3           2             2   13     1      -0.4412494623E-03       2   13    1        -0.2552694941E-01      0.4541473950E-01
          0                 4           2             4   13     1      -0.2677174661E-03       4   13    1        -0.1577296290E-01      0.2734909931E-01
          0                 5           1             4   13     1      -0.8049765712E-04       4   13    1        -0.4743375220E-02      0.8276758104E-02

    ------------------------------------------------
       NWT REQUIRED            5 OUTER ITERATIONS 
       AND A TOTAL OF          9 INNER ITERATIONS.
    ------------------------------------------------

 NO OUTPUT CONTROL FOR STRESS PERIOD   43   TIME STEP    6
 
 SOLVING FOR HEAD 
                                                   Max.-Head-Change                         Max.-Flux-Residual
  Residual-Control   Outer-Iter.   Inner-Iter.     Column Row Layer    Maximum-Head-Change  Column Row Layer    Maximum-Flux-Residual          L2-NORM 
          0                 1           2             4   13     1       0.4283884895E-02       4   13    1         0.2470767587E+00      0.5051585797E+00
          0                 2           2             4   13     1      -0.7427749192E-02       4   13    1        -0.4379239772E+00      0.7547498789E+00
          0                 3           2             2   13     1      -0.4367585906E-03       2   13    1        -0.2526688622E-01      0.4493243772E-01
          0                 4           2             4   13     1      -0.2715691189E-03       4   13    1        -0.1599998481E-01      0.2773658452E-01
          0                 5           1             4   13     1      -0.8140959140E-04       4   13    1        -0.4797104038E-02      0.8371443691E-02

    ------------------------------------------------
       NWT REQUIRED            5 OUTER ITERATIONS 
       AND A TOTAL OF          9 INNER ITERATIONS.
    ------------------------------------------------

 NO OUTPUT CONTROL FOR STRESS PERIOD   43   TIME STEP    7
 
 SOLVING FOR HEAD 
                                                   Max.-Head-Change                         Max.-Flux-Residual
  Residual-Control   Outer-Iter.   Inner-Iter.     Column Row Layer    Maximum-Head-Change  Column Row Layer    Maximum-Flux-Residual          L2-NORM 
          0                 1           2             4   13     1       0.4681256437E-02       4   13    1         0.2700109845E+00      0.5329910903E+00
          0                 2           2             4   13     1      -0.7474831642E-02       4   13    1        -0.4407090740E+00      0.7591159192E+00
          0                 3           2             2   13     1      -0.4320978662E-03       2   13    1        -0.2499705992E-01      0.4443207053E-01
          0                 4           2             4   13     1      -0.2753272716E-03       4   13    1        -0.1622147372E-01      0.2811590809E-01
          0                 5           1             4   13     1      -0.8229468093E-04       4   13    1        -0.4849272457E-02      0.8461670936E-02

    ------------------------------------------------
       NWT REQUIRED            5 OUTER ITERATIONS 
       AND A TOTAL OF          9 INNER ITERATIONS.
    ------------------------------------------------

 NO OUTPUT CONTROL FOR STRESS PERIOD   43   TIME STEP    8
 
 SOLVING FOR HEAD 
                                                   Max.-Head-Change                         Max.-Flux-Residual
  Residual-Control   Outer-Iter.   Inner-Iter.     Column Row Layer    Maximum-Head-Change  Column Row Layer    Maximum-Flux-Residual          L2-NORM 
          0                 1           2             4   13     1       0.5040489218E-02       4   13    1         0.2907355764E+00      0.5593793173E+00
          0                 2           2             4   13     1      -0.7517415547E-02       4   13    1        -0.4432271367E+00      0.7631372242E+00
          0                 3           2             2   13     1      -0.4274992579E-03       2   13    1        -0.2473085575E-01      0.4394168602E-01
          0                 4           2             4   13     1      -0.2790268075E-03       4   13    1        -0.1643950643E-01      0.2849044993E-01
          0                 5           1             4   13     1      -0.8311662598E-04       4   13    1        -0.4897684451E-02      0.8548379290E-02

    ------------------------------------------------
       NWT REQUIRED            5 OUTER ITERATIONS 
       AND A TOTAL OF          9 INNER ITERATIONS.
    ------------------------------------------------

 NO OUTPUT CONTROL FOR STRESS PERIOD   43   TIME STEP    9
 
 SOLVING FOR HEAD 
                                                   Max.-Head-Change                         Max.-Flux-Residual
  Residual-Control   Outer-Iter.   Inner-Iter.     Column Row Layer    Maximum-Head-Change  Column Row Layer    Maximum-Flux-Residual          L2-NORM 
          0                 1           2             4   13     1       0.5365247698E-02       4   13    1         0.3094633678E+00      0.5842221094E+00
          0                 2           2             4   13     1      -0.7555891259E-02       4   13    1        -0.4455014081E+00      0.7668357943E+00
          0                 3           2             2   13     1      -0.4247811900E-03       2   13    1        -0.2457344071E-01      0.4364756968E-01
          0                 4           2             4   13     1      -0.2813745105E-03       4   13    1        -0.1657790980E-01      0.2872348392E-01
          0                 5           1             4   13     1      -0.8365327199E-04       4   13    1        -0.4929313860E-02      0.8602727694E-02

    ------------------------------------------------
       NWT REQUIRED            5 OUTER ITERATIONS 
       AND A TOTAL OF          9 INNER ITERATIONS.
    ------------------------------------------------

 NO OUTPUT CONTROL FOR STRESS PERIOD   43   TIME STEP   10
 
 SOLVING FOR HEAD 
                                                   Max.-Head-Change                         Max.-Flux-Residual
  Residual-Control   Outer-Iter.   Inner-Iter.     Column Row Layer    Maximum-Head-Change  Column Row Layer    Maximum-Flux-Residual          L2-NORM 
          0                 1           2             4   13     1       0.5658964727E-02       4   13    1         0.3263938340E+00      0.6074968471E+00
          0                 2           2             4   13     1      -0.7590732814E-02       4   13    1        -0.4475600833E+00      0.7702437614E+00
          0                 3           2             2   13     1      -0.4242710579E-03       2   13    1        -0.2454372751E-01      0.4359143948E-01
          0                 4           2             4   13     1      -0.2819074951E-03       4   13    1        -0.1660929968E-01      0.2878104473E-01
          0                 5           1             4   13     1      -0.8380076183E-04       4   13    1        -0.4938013499E-02      0.8617554197E-02

    ------------------------------------------------
       NWT REQUIRED            5 OUTER ITERATIONS 
       AND A TOTAL OF          9 INNER ITERATIONS.
    ------------------------------------------------

 NO OUTPUT CONTROL FOR STRESS PERIOD   43   TIME STEP   11
 
 SOLVING FOR HEAD 
                                                   Max.-Head-Change                         Max.-Flux-Residual
  Residual-Control   Outer-Iter.   Inner-Iter.     Column Row Layer    Maximum-Head-Change  Column Row Layer    Maximum-Flux-Residual          L2-NORM 
          0                 1           2             4   13     1       0.5924850230E-02       4   13    1         0.3417133076E+00      0.6292297392E+00
          0                 2           2             4   13     1      -0.7622208277E-02       4   13    1        -0.4494191255E+00      0.7733794846E+00
          0                 3           2             2   13     1      -0.4238064656E-03       2   13    1        -0.2451667466E-01      0.4354119587E-01
          0                 4           2             4   13     1      -0.2824596040E-03       4   13    1        -0.1664183253E-01      0.2883873001E-01
          0                 5           1             4   13     1      -0.8392756647E-04       4   13    1        -0.4945484695E-02      0.8630628070E-02

    ------------------------------------------------
       NWT REQUIRED            5 OUTER ITERATIONS 
       AND A TOTAL OF          9 INNER ITERATIONS.
    ------------------------------------------------

 NO OUTPUT CONTROL FOR STRESS PERIOD   43   TIME STEP   12
 
 SOLVING FOR HEAD 
                                                   Max.-Head-Change                         Max.-Flux-Residual
  Residual-Control   Outer-Iter.   Inner-Iter.     Column Row Layer    Maximum-Head-Change  Column Row Layer    Maximum-Flux-Residual          L2-NORM 
          0                 1           2             4   13     1       0.6165539248E-02       4   13    1         0.3555746686E+00      0.6494644101E+00
          0                 2           2             4   13     1      -0.7650753404E-02       4   13    1        -0.4511044049E+00      0.7762682485E+00
          0                 3           2             2   13     1      -0.4234292308E-03       2   13    1        -0.2449470112E-01      0.4349818033E-01
          0                 4           2             4   13     1      -0.2829735026E-03       4   13    1        -0.1667211902E-01      0.2889355561E-01
          0                 5           1             4   13     1      -0.8406561433E-04       4   13    1        -0.4953619149E-02      0.8644636105E-02

    ------------------------------------------------
       NWT REQUIRED            5 OUTER ITERATIONS 
       AND A TOTAL OF          9 INNER ITERATIONS.
    ------------------------------------------------

 NO OUTPUT CONTROL FOR STRESS PERIOD   43   TIME STEP   13
 
 SOLVING FOR HEAD 
                                                   Max.-Head-Change                         Max.-Flux-Residual
  Residual-Control   Outer-Iter.   Inner-Iter.     Column Row Layer    Maximum-Head-Change  Column Row Layer    Maximum-Flux-Residual          L2-NORM 
          0                 1           2             4   13     1       0.6383665566E-02       4   13    1         0.3681308945E+00      0.6682891017E+00
          0                 2           2             4   13     1      -0.7676606811E-02       4   13    1        -0.4526301681E+00      0.7789380216E+00
          0                 3           2             2   13     1      -0.4231109054E-03       2   13    1        -0.2447616016E-01      0.4346301743E-01
          0                 4           2             4   13     1      -0.2834418073E-03       4   13    1        -0.1669972249E-01      0.2893995387E-01
          0                 5           1             4   13     1      -0.8418013821E-04       4   13    1        -0.4960360945E-02      0.8656659759E-02

    ------------------------------------------------
       NWT REQUIRED            5 OUTER ITERATIONS 
       AND A TOTAL OF          9 INNER ITERATIONS.
    ------------------------------------------------

 NO OUTPUT CONTROL FOR STRESS PERIOD   43   TIME STEP   14
 
 SOLVING FOR HEAD 
                                                   Max.-Head-Change                         Max.-Flux-Residual
  Residual-Control   Outer-Iter.   Inner-Iter.     Column Row Layer    Maximum-Head-Change  Column Row Layer    Maximum-Flux-Residual          L2-NORM 
          0                 1           2             4   13     1       0.6581337967E-02       4   13    1         0.3795041425E+00      0.6857665787E+00
          0                 2           2             4   13     1      -0.7700034940E-02       4   13    1        -0.4540121810E+00      0.7813976024E+00
          0                 3           2             2   13     1      -0.4228330783E-03       2   13    1        -0.2445999157E-01      0.4353818169E-01
          0                 4           2             4   13     1      -0.2839087667E-03       4   13    1        -0.1672808725E-01      0.2898255595E-01
          0                 5           1             4   13     1      -0.8428501148E-04       4   13    1        -0.4965488594E-02      0.8674627839E-02

    ------------------------------------------------
       NWT REQUIRED            5 OUTER ITERATIONS 
       AND A TOTAL OF          9 INNER ITERATIONS.
    ------------------------------------------------

 NO OUTPUT CONTROL FOR STRESS PERIOD   43   TIME STEP   15
 
 SOLVING FOR HEAD 
                                                   Max.-Head-Change                         Max.-Flux-Residual
  Residual-Control   Outer-Iter.   Inner-Iter.     Column Row Layer    Maximum-Head-Change  Column Row Layer    Maximum-Flux-Residual          L2-NORM 
          0                 1           2             4   13     1       0.6760628081E-02       4   13    1         0.3898148459E+00      0.7019770724E+00
          0                 2           2             4   13     1      -0.7730526460E-02       4   13    1        -0.4558083165E+00      0.7846073395E+00
          0                 3           2             2   13     1      -0.4160342269E-03       2   13    1        -0.2406663290E-01      0.4281812409E-01
          0                 4           2             4   13     1      -0.2827312620E-03       4   13    1        -0.1665868391E-01      0.2886406261E-01
          0                 5           1             4   13     1      -0.8381366799E-04       4   13    1        -0.4937707223E-02      0.8627129043E-02

    ------------------------------------------------
       NWT REQUIRED            5 OUTER ITERATIONS 
       AND A TOTAL OF          9 INNER ITERATIONS.
    ------------------------------------------------

 NO OUTPUT CONTROL FOR STRESS PERIOD   43   TIME STEP   16
 
 SOLVING FOR HEAD 
                                                   Max.-Head-Change                         Max.-Flux-Residual
  Residual-Control   Outer-Iter.   Inner-Iter.     Column Row Layer    Maximum-Head-Change  Column Row Layer    Maximum-Flux-Residual          L2-NORM 
          0                 1           2             4   13     1       0.6923394607E-02       4   13    1         0.3991705706E+00      0.7170228081E+00
          0                 2           2             4   13     1      -0.7747113494E-02       4   13    1        -0.4567863897E+00      0.7864260250E+00
          0                 3           2             2   13     1      -0.4177686700E-03       2   13    1        -0.2416686931E-01      0.4300094628E-01
          0                 4           2             4   13     1      -0.2835856653E-03       4   13    1        -0.1670903232E-01      0.2895200399E-01
          0                 5           1             4   13     1      -0.8407959988E-04       4   13    1        -0.4953376722E-02      0.8655456940E-02

    ------------------------------------------------
       NWT REQUIRED            5 OUTER ITERATIONS 
       AND A TOTAL OF          9 INNER ITERATIONS.
    ------------------------------------------------

 NO OUTPUT CONTROL FOR STRESS PERIOD   43   TIME STEP   17
 
 SOLVING FOR HEAD 
                                                   Max.-Head-Change                         Max.-Flux-Residual
  Residual-Control   Outer-Iter.   Inner-Iter.     Column Row Layer    Maximum-Head-Change  Column Row Layer    Maximum-Flux-Residual          L2-NORM 
          0                 1           2             4   13     1       0.7071099313E-02       4   13    1         0.4076560859E+00      0.7309615798E+00
          0                 2           2             4   13     1      -0.7762072225E-02       4   13    1        -0.4576679756E+00      0.7881008608E+00
          0                 3           2             2   13     1      -0.4193821783E-03       2   13    1        -0.2426011636E-01      0.4316651263E-01
          0                 4           2             4   13     1      -0.2843845413E-03       4   13    1        -0.1675608458E-01      0.2903697575E-01
          0                 5           1             4   13     1      -0.8432549519E-04       4   13    1        -0.4967866606E-02      0.8680013978E-02

    ------------------------------------------------
       NWT REQUIRED            5 OUTER ITERATIONS 
       AND A TOTAL OF          9 INNER ITERATIONS.
    ------------------------------------------------

 NO OUTPUT CONTROL FOR STRESS PERIOD   43   TIME STEP   18
 
 SOLVING FOR HEAD 
                                                   Max.-Head-Change                         Max.-Flux-Residual
  Residual-Control   Outer-Iter.   Inner-Iter.     Column Row Layer    Maximum-Head-Change  Column Row Layer    Maximum-Flux-Residual          L2-NORM 
          0                 1           2             4   13     1       0.7205280794E-02       4   13    1         0.4153606596E+00      0.7438805478E+00
          0                 2           2             4   13     1      -0.7784257661E-02       4   13    1        -0.4589736361E+00      0.7905271525E+00
          0                 3           2             2   13     1      -0.4148309513E-03       2   13    1        -0.2399682058E-01      0.4268280841E-01
          0                 4           2             4   13     1      -0.2836523511E-03       4   13    1        -0.1671292814E-01      0.2896252986E-01
          0                 5           1             4   13     1      -0.8401970219E-04       4   13    1        -0.4949843833E-02      0.8649549084E-02

    ------------------------------------------------
       NWT REQUIRED            5 OUTER ITERATIONS 
       AND A TOTAL OF          9 INNER ITERATIONS.
    ------------------------------------------------

 NO OUTPUT CONTROL FOR STRESS PERIOD   43   TIME STEP   19
 
 SOLVING FOR HEAD 
                                                   Max.-Head-Change                         Max.-Flux-Residual
  Residual-Control   Outer-Iter.   Inner-Iter.     Column Row Layer    Maximum-Head-Change  Column Row Layer    Maximum-Flux-Residual          L2-NORM 
          0                 1           2             4   13     1       0.7327259644E-02       4   13    1         0.4223608310E+00      0.7558479833E+00
          0                 2           2             4   13     1      -0.7788490103E-02       4   13    1        -0.4592236231E+00      0.7911359682E+00
          0                 3           2             2   13     1      -0.4219907617E-03       2   13    1        -0.2441089632E-01      0.4344171113E-01
          0                 4           2             4   13     1      -0.2856466946E-03       4   13    1        -0.1683038674E-01      0.2917384298E-01
          0                 5           1             4   13     1      -0.8475442477E-04       4   13    1        -0.4993138366E-02      0.8724225761E-02

    ------------------------------------------------
       NWT REQUIRED            5 OUTER ITERATIONS 
       AND A TOTAL OF          9 INNER ITERATIONS.
    ------------------------------------------------

 NO OUTPUT CONTROL FOR STRESS PERIOD   43   TIME STEP   20
 
 SOLVING FOR HEAD 
                                                   Max.-Head-Change                         Max.-Flux-Residual
  Residual-Control   Outer-Iter.   Inner-Iter.     Column Row Layer    Maximum-Head-Change  Column Row Layer    Maximum-Flux-Residual          L2-NORM 
          0                 1           2             4   13     1       0.7438184841E-02       4   13    1         0.4287230957E+00      0.7669321720E+00
          0                 2           2             4   13     1      -0.7802106642E-02       4   13    1        -0.4600246685E+00      0.7927082907E+00
          0                 3           2             2   13     1      -0.4215879281E-03       2   13    1        -0.2438755113E-01      0.4339756845E-01
          0                 4           2             4   13     1      -0.2859146260E-03       4   13    1        -0.1684618566E-01      0.2919920367E-01
          0                 5           1             4   13     1      -0.8478202471E-04       4   13    1        -0.4994752449E-02      0.8729106320E-02

    ------------------------------------------------
       NWT REQUIRED            5 OUTER ITERATIONS 
       AND A TOTAL OF          9 INNER ITERATIONS.
    ------------------------------------------------

 NO OUTPUT CONTROL FOR STRESS PERIOD   43   TIME STEP   21
 
 SOLVING FOR HEAD 
                                                   Max.-Head-Change                         Max.-Flux-Residual
  Residual-Control   Outer-Iter.   Inner-Iter.     Column Row Layer    Maximum-Head-Change  Column Row Layer    Maximum-Flux-Residual          L2-NORM 
          0                 1           2             4   13     1       0.7539080895E-02       4   13    1         0.4345066957E+00      0.7772091271E+00
          0                 2           2             4   13     1      -0.7814504751E-02       4   13    1        -0.4607535979E+00      0.7941663194E+00
          0                 3           2             2   13     1      -0.4212232031E-03       2   13    1        -0.2436641082E-01      0.4335922863E-01
          0                 4           2             4   13     1      -0.2861187772E-03       4   13    1        -0.1685819668E-01      0.2922244410E-01
          0                 5           1             4   13     1      -0.8482460296E-04       4   13    1        -0.4997256932E-02      0.8733850084E-02

    ------------------------------------------------
       NWT REQUIRED            5 OUTER ITERATIONS 
       AND A TOTAL OF          9 INNER ITERATIONS.
    ------------------------------------------------

 NO OUTPUT CONTROL FOR STRESS PERIOD   43   TIME STEP   22
 
 SOLVING FOR HEAD 
                                                   Max.-Head-Change                         Max.-Flux-Residual
  Residual-Control   Outer-Iter.   Inner-Iter.     Column Row Layer    Maximum-Head-Change  Column Row Layer    Maximum-Flux-Residual          L2-NORM 
          0                 1           2             4   13     1       0.7631009125E-02       4   13    1         0.4397731944E+00      0.7867323671E+00
          0                 2           2             4   13     1      -0.7825799021E-02       4   13    1        -0.4614173284E+00      0.7955149203E+00
          0                 3           2             2   13     1      -0.4209114233E-03       2   13    1        -0.2434833858E-01      0.4332664528E-01
          0                 4           2             4   13     1      -0.2863092149E-03       4   13    1        -0.1686940973E-01      0.2924317303E-01
          0                 5           1             4   13     1      -0.8487393197E-04       4   13    1        -0.5000161977E-02      0.8739020114E-02

    ------------------------------------------------
       NWT REQUIRED            5 OUTER ITERATIONS 
       AND A TOTAL OF          9 INNER ITERATIONS.
    ------------------------------------------------

 NO OUTPUT CONTROL FOR STRESS PERIOD   43   TIME STEP   23
 
 SOLVING FOR HEAD 
                                                   Max.-Head-Change                         Max.-Flux-Residual
  Residual-Control   Outer-Iter.   Inner-Iter.     Column Row Layer    Maximum-Head-Change  Column Row Layer    Maximum-Flux-Residual          L2-NORM 
          0                 1           2             4   13     1       0.7714752230E-02       4   13    1         0.4445678652E+00      0.7955572491E+00
          0                 2           2             4   13     1      -0.7836119015E-02       4   13    1        -0.4620235049E+00      0.7967645543E+00
          0                 3           2             2   13     1      -0.4206430900E-03       2   13    1        -0.2433281140E-01      0.4329684986E-01
          0                 4           2             4   13     1      -0.2864759395E-03       4   13    1        -0.1687919152E-01      0.2925955772E-01
          0                 5           1             4   13     1      -0.8492167334E-04       4   13    1        -0.5002970523E-02      0.8749697952E-02

    ------------------------------------------------
       NWT REQUIRED            5 OUTER ITERATIONS 
       AND A TOTAL OF          9 INNER ITERATIONS.
    ------------------------------------------------

 NO OUTPUT CONTROL FOR STRESS PERIOD   43   TIME STEP   24
 
 SOLVING FOR HEAD 
                                                   Max.-Head-Change                         Max.-Flux-Residual
  Residual-Control   Outer-Iter.   Inner-Iter.     Column Row Layer    Maximum-Head-Change  Column Row Layer    Maximum-Flux-Residual          L2-NORM 
          0                 1           2             4   13     1       0.7791081794E-02       4   13    1         0.4489353955E+00      0.8037406483E+00
          0                 2           2             4   13     1      -0.7845524842E-02       4   13    1        -0.4625756986E+00      0.7979220357E+00
          0                 3           2             2   13     1      -0.4204067213E-03       2   13    1        -0.2431913520E-01      0.4327038414E-01
          0                 4           2             4   13     1      -0.2866842363E-03       4   13    1        -0.1689146615E-01      0.2928498248E-01
          0                 5           1             4   13     1      -0.8490380028E-04       4   13    1        -0.5001876861E-02      0.8746751865E-02

    ------------------------------------------------
       NWT REQUIRED            5 OUTER ITERATIONS 
       AND A TOTAL OF          9 INNER ITERATIONS.
    ------------------------------------------------

 NO OUTPUT CONTROL FOR STRESS PERIOD   43   TIME STEP   25
 
 SOLVING FOR HEAD 
                                                   Max.-Head-Change                         Max.-Flux-Residual
  Residual-Control   Outer-Iter.   Inner-Iter.     Column Row Layer    Maximum-Head-Change  Column Row Layer    Maximum-Flux-Residual          L2-NORM 
          0                 1           2             4   13     1       0.7860718743E-02       4   13    1         0.4529173179E+00      0.8113310570E+00
          0                 2           2             4   13     1      -0.7854109430E-02       4   13    1        -0.4630793981E+00      0.7989941905E+00
          0                 3           2             2   13     1      -0.4201996307E-03       2   13    1        -0.2430713675E-01      0.4324805104E-01
          0                 4           2             4   13     1      -0.2868023476E-03       4   13    1        -0.1689837125E-01      0.2930135404E-01
          0                 5           1             4   13     1      -0.8499339148E-04       4   13    1        -0.5007199744E-02      0.8752387115E-02

    ------------------------------------------------
       NWT REQUIRED            5 OUTER ITERATIONS 
       AND A TOTAL OF          9 INNER ITERATIONS.
    ------------------------------------------------

 NO OUTPUT CONTROL FOR STRESS PERIOD   43   TIME STEP   26
 
 SOLVING FOR HEAD 
                                                   Max.-Head-Change                         Max.-Flux-Residual
  Residual-Control   Outer-Iter.   Inner-Iter.     Column Row Layer    Maximum-Head-Change  Column Row Layer    Maximum-Flux-Residual          L2-NORM 
          0                 1           2             4   13     1       0.7924422008E-02       4   13    1         0.4565577496E+00      0.8183679697E+00
          0                 2           2             4   13     1      -0.7861987721E-02       4   13    1        -0.4635414368E+00      0.7999889238E+00
          0                 3           2             2   13     1      -0.4200222582E-03       2   13    1        -0.2429686835E-01      0.4322852005E-01
          0                 4           2             4   13     1      -0.2869545454E-03       4   13    1        -0.1690732818E-01      0.2931864738E-01
          0                 5           1             4   13     1      -0.8502440536E-04       4   13    1        -0.5009015314E-02      0.8756610522E-02

    ------------------------------------------------
       NWT REQUIRED            5 OUTER ITERATIONS 
       AND A TOTAL OF          9 INNER ITERATIONS.
    ------------------------------------------------

 NO OUTPUT CONTROL FOR STRESS PERIOD   43   TIME STEP   27
 
 SOLVING FOR HEAD 
                                                   Max.-Head-Change                         Max.-Flux-Residual
  Residual-Control   Outer-Iter.   Inner-Iter.     Column Row Layer    Maximum-Head-Change  Column Row Layer    Maximum-Flux-Residual          L2-NORM 
          0                 1           2             4   13     1       0.7982528271E-02       4   13    1         0.4598759236E+00      0.8248980173E+00
          0                 2           2             4   13     1      -0.7869177136E-02       4   13    1        -0.4639628066E+00      0.8009140024E+00
          0                 3           2             2   13     1      -0.4179310224E-03       2   13    1        -0.2417593213E-01      0.4300705536E-01
          0                 4           2             4   13     1      -0.2869260072E-03       4   13    1        -0.1690563572E-01      0.2931757184E-01
          0                 5           1             4   13     1      -0.8508287599E-04       4   13    1        -0.5012455333E-02      0.8763001710E-02

    ------------------------------------------------
       NWT REQUIRED            5 OUTER ITERATIONS 
       AND A TOTAL OF          9 INNER ITERATIONS.
    ------------------------------------------------

 NO OUTPUT CONTROL FOR STRESS PERIOD   43   TIME STEP   28
 
 SOLVING FOR HEAD 
                                                   Max.-Head-Change                         Max.-Flux-Residual
  Residual-Control   Outer-Iter.   Inner-Iter.     Column Row Layer    Maximum-Head-Change  Column Row Layer    Maximum-Flux-Residual          L2-NORM 
          0                 1           2             4   13     1       0.8035470481E-02       4   13    1         0.4628970997E+00      0.8309483793E+00
          0                 2           2             4   13     1      -0.7875751212E-02       4   13    1        -0.4643478966E+00      0.8017718556E+00
          0                 3           2             2   13     1      -0.4179687161E-03       2   13    1        -0.2417810990E-01      0.4301045026E-01
          0                 4           2             4   13     1      -0.2870930136E-03       4   13    1        -0.1691545532E-01      0.2933603834E-01
          0                 5           1             4   13     1      -0.8507352659E-04       4   13    1        -0.5011885853E-02      0.8764771665E-02

    ------------------------------------------------
       NWT REQUIRED            5 OUTER ITERATIONS 
       AND A TOTAL OF          9 INNER ITERATIONS.
    ------------------------------------------------

 NO OUTPUT CONTROL FOR STRESS PERIOD   43   TIME STEP   29
 
 SOLVING FOR HEAD 
                                                   Max.-Head-Change                         Max.-Flux-Residual
  Residual-Control   Outer-Iter.   Inner-Iter.     Column Row Layer    Maximum-Head-Change  Column Row Layer    Maximum-Flux-Residual          L2-NORM 
          0                 1           2             4   13     1       0.8083986763E-02       4   13    1         0.4656637373E+00      0.8365620390E+00
          0                 2           2             4   13     1      -0.7881812160E-02       4   13    1        -0.4647027558E+00      0.8025691880E+00
          0                 3           2             2   13     1      -0.4179936128E-03       2   13    1        -0.2417954919E-01      0.4301239715E-01
          0                 4           2             4   13     1      -0.2872264210E-03       4   13    1        -0.1692329107E-01      0.2935147931E-01
          0                 5           1             4   13     1      -0.8512997360E-04       4   13    1        -0.5015228399E-02      0.8769281052E-02

    ------------------------------------------------
       NWT REQUIRED            5 OUTER ITERATIONS 
       AND A TOTAL OF          9 INNER ITERATIONS.
    ------------------------------------------------

 NO OUTPUT CONTROL FOR STRESS PERIOD   43   TIME STEP   30



 STREAM LISTING     PERIOD     43   STEP       30

 LAYER ROW COL. STREAM  RCH.  FLOW INTO     FLOW TO   FLOW OUT OF   OVRLND.     DIRECT     STREAM       STREAM     STREAM     STREAM   STREAMBED  STREAMBED
                SEG.NO.  NO.  STRM. RCH.    AQUIFER    STRM. RCH.    RUNOFF     PRECIP       ET          HEAD       DEPTH      WIDTH   CONDCTNC.   GRADIENT

   1    1    1     1     1    4.3499E+01  3.1564E-01   4.3183E+01  0.000E+00  0.000E+00  0.000E+00  1.09440E+03  1.356E+00  1.610E+01  7.246E-02  1.452E+00
   1    2    2     1     2    4.3183E+01  4.8894E-01   4.2694E+01  0.000E+00  0.000E+00  0.000E+00  1.08941E+03  1.354E+00  1.604E+01  1.123E-01  1.451E+00
   1    3    3     1     3    4.2694E+01  4.1710E-01   4.2277E+01  0.000E+00  0.000E+00  0.000E+00  1.08377E+03  1.350E+00  1.598E+01  9.588E-02  1.450E+00
   1    3    4     1     4    4.2277E+01  3.8418E-01   4.1893E+01  0.000E+00  0.000E+00  0.000E+00  1.07876E+03  1.347E+00  1.592E+01  8.837E-02  1.449E+00
   1    4    5     2     1    3.9893E+01  3.5834E-01   3.9534E+01  0.000E+00  0.000E+00  0.000E+00  1.07353E+03  1.594E+00  1.200E+01  7.800E-02  1.531E+00
   1    5    6     2     2    3.9534E+01  2.7519E-01   3.9259E+01  0.000E+00  0.000E+00  0.000E+00  1.06810E+03  1.586E+00  1.200E+01  6.000E-02  1.529E+00
   1    6    6     2     3    3.9259E+01  2.7479E-01   3.8985E+01  0.000E+00  0.000E+00  0.000E+00  1.06337E+03  1.580E+00  1.200E+01  6.000E-02  1.527E+00
   1    7    6     2     4    3.8985E+01  2.7439E-01   3.8710E+01  0.000E+00  0.000E+00  0.000E+00  1.05865E+03  1.573E+00  1.200E+01  6.000E-02  1.524E+00
   1    8    6     2     5    3.8710E+01  2.7399E-01   3.8436E+01  0.000E+00  0.000E+00  0.000E+00  1.05392E+03  1.566E+00  1.200E+01  6.000E-02  1.522E+00
   1    3    5     3     1    2.0000E+00  2.8252E-01   1.7175E+00  0.000E+00  0.000E+00  0.000E+00  1.07555E+03  1.909E+00  9.636E+00  7.227E-02  1.955E+00
   1    3    6     3     2    1.7175E+00  2.4905E-01   1.4684E+00  0.000E+00  0.000E+00  0.000E+00  1.07264E+03  1.727E+00  8.909E+00  6.682E-02  1.864E+00
   1    3    7     3     3    1.4684E+00  1.9718E-01   1.2712E+00  0.000E+00  0.000E+00  0.000E+00  1.06987E+03  1.555E+00  8.218E+00  5.547E-02  1.777E+00
   1    4    8     3     4    1.2712E+00  2.2567E-01   1.0456E+00  0.000E+00  0.000E+00  0.000E+00  1.06682E+03  1.364E+00  7.455E+00  6.709E-02  1.682E+00
   1    5    8     3     5    1.0456E+00  1.5790E-01   8.8768E-01  0.000E+00  0.000E+00  0.000E+00  1.06362E+03  1.164E+00  6.655E+00  4.991E-02  1.582E+00
   1    6    8     3     6    8.8768E-01  5.5980E-02   8.3170E-01  0.000E+00  0.000E+00  0.000E+00  1.06158E+03  1.036E+00  6.145E+00  1.844E-02  1.518E+00
   1    5   10     4     1    1.0000E+01  9.0919E-02   9.9091E+00  0.000E+00  0.000E+00  0.000E+00  1.07836E+03  6.368E-01  1.000E+01  2.500E-02  1.212E+00
   1    5    9     4     2    9.9091E+00  1.8158E-01   9.7275E+00  0.000E+00  0.000E+00  0.000E+00  1.07154E+03  6.315E-01  1.000E+01  5.000E-02  1.211E+00
   1    6    8     4     3    9.7275E+00  1.2689E-01   9.6006E+00  0.000E+00  0.000E+00  0.000E+00  1.06381E+03  6.256E-01  1.000E+01  3.500E-02  1.209E+00
   1    6    8     5     1    1.0432E+01  2.2686E-01   1.0205E+01  0.000E+00  0.000E+00  0.000E+00  1.05868E+03  6.790E-01  1.542E+01  6.166E-02  1.226E+00
   1    7    7     5     2    1.0205E+01  2.7894E-01   9.9265E+00  0.000E+00  0.000E+00  0.000E+00  1.05417E+03  6.732E-01  1.519E+01  7.594E-02  1.224E+00
   1    8    7     5     3    9.9265E+00  1.9221E-01   9.7343E+00  0.000E+00  0.000E+00  0.000E+00  1.04992E+03  6.676E-01  1.497E+01  5.241E-02  1.223E+00
   1    8    6     5     4    9.7343E+00  1.3577E-01   9.5985E+00  0.000E+00  0.000E+00  0.000E+00  1.04691E+03  6.637E-01  1.482E+01  3.706E-02  1.221E+00
   1    9    6     6     1    2.5774E+01  2.5456E-01   2.5519E+01  0.000E+00  0.000E+00  0.000E+00  1.04397E+03  1.243E+00  1.200E+01  6.000E-02  1.414E+00
   1   10    7     6     2    2.5519E+01  2.5411E-01   2.5265E+01  0.000E+00  0.000E+00  0.000E+00  1.03942E+03  1.235E+00  1.200E+01  6.000E-02  1.412E+00
   1   11    7     6     3    2.5265E+01  2.5367E-01   2.5012E+01  0.000E+00  0.000E+00  0.000E+00  1.03486E+03  1.228E+00  1.200E+01  6.000E-02  1.409E+00
   1   12    7     6     4    2.5012E+01  2.5322E-01   2.4758E+01  0.000E+00  0.000E+00  0.000E+00  1.03031E+03  1.220E+00  1.200E+01  6.000E-02  1.407E+00
   1   13    7     6     5    2.4758E+01  1.1395E-03   2.4757E+01  0.000E+00  0.000E+00  0.000E+00  1.02713E+03  1.217E+00  1.200E+01  2.400E-02  1.583E-02
   1   14    9     7     1    1.5000E+02  1.3435E+00   1.4866E+02  0.000E+00  0.000E+00  0.000E+00  1.03987E+03  2.288E+00  5.529E+01  5.593E-01  8.007E-01
   1   13    8     7     2    1.4866E+02  1.8422E+00   1.4681E+02  0.000E+00  0.000E+00  0.000E+00  1.03478E+03  2.279E+00  5.526E+01  6.148E-01  9.988E-01
   1   13    7     7     3    1.4681E+02  1.4584E+00   1.4536E+02  0.000E+00  0.000E+00  0.000E+00  1.02969E+03  2.270E+00  5.522E+01  5.584E-01  8.705E-01
   1   13    6     8     1    1.7011E+02  8.9973E-01   1.6921E+02  0.000E+00  0.000E+00  0.000E+00  1.02483E+03  2.951E+00  4.278E+01  4.360E-01  6.879E-01
   1   13    5     8     2    1.6921E+02  1.4723E-01   1.6907E+02  0.000E+00  0.000E+00  0.000E+00  1.01857E+03  2.947E+00  4.273E+01  4.355E-01  1.127E-01
   1   13    4     8     3    1.6907E+02 -2.5527E+00   1.7162E+02  0.000E+00  0.000E+00  0.000E+00  1.01233E+03  2.955E+00  4.285E+01  4.366E+00 -1.949E-01
   1   13    3     8     4    1.7162E+02 -3.7137E+00   1.7533E+02  0.000E+00  0.000E+00  0.000E+00  1.00610E+03  2.975E+00  4.314E+01  4.396E+00 -2.816E-01
   1   13    2     8     5    1.7533E+02 -2.6222E+00   1.7795E+02  0.000E+00  0.000E+00  0.000E+00  9.99871E+02  2.996E+00  4.344E+01  4.426E+00 -1.975E-01
   1   13    1     8     6    1.7795E+02 -2.0394E+00   1.7999E+02  0.000E+00  0.000E+00  0.000E+00  9.94885E+02  3.010E+00  4.365E+01  2.669E+00 -2.547E-01
   1    8    6     9     1    2.2261E+01  0.0000E+00   2.2261E+01  0.000E+00  0.000E+00  0.000E+00  1.08240E+03  3.653E+00  4.000E+00  0.000E+00  2.218E+00
   1    8    5     9     2    2.2261E+01  0.0000E+00   2.2261E+01  0.000E+00  0.000E+00  0.000E+00  1.08190E+03  3.653E+00  4.000E+00  0.000E+00  2.218E+00





UNSATURATED ZONE PACKAGE VOLUMETRIC BUDGET FOR  TIME STEP    30 STRESS PERIOD   43
  ------------------------------------------------------------------------------



     CUMULATIVE VOLUMES      L**3       RATES FOR THIS TIME STEP      L**3/T
     ------------------                 ------------------------

           IN:                                      IN:
           ---                                      ---
        INFILTRATION =  1755032803.1570          INFILTRATION =          26.6686

          OUT:                                     OUT:
          ----                                     ----
              UZF ET =  1622951530.6428                UZF ET =          26.5765
        UZF RECHARGE =     1884068.5034          UZF RECHARGE =       0.0000E+00

            IN - OUT =   130197204.0108              IN - OUT =       9.2156E-02

          STORAGE:                                 STORAGE:
          --------                                 --------
      STORAGE CHANGE =   130199051.2821        STORAGE CHANGE =       9.2156E-02

 PERCENT DISCREPANCY IS DIFFERENCE BETWEEN IN-OUT MINUS CHANGE IN STORAGE
 DIVIDED BY THE AVERAGE OF IN AND OUT TIMES 100

 PERCENT DISCREPANCY =          -0.00     PERCENT DISCREPANCY =           0.00






1
  VOLUMETRIC BUDGET FOR AGRICULTURAL FIELDS AT TIME STEP   30, STRESS PERIOD  43
  ------------------------------------------------------------------------------

     CUMULATIVE VOLUMES      L**3       RATES FOR THIS TIME STEP      L**3/T
     ------------------                 ------------------------

           IN:                                      IN:
           ---                                      ---
               AG WELLS  =   218905344.0000                 AG WELLS  =           0.0000
      DIVERSION SEGMENTS =  1049182848.0000        DIVERSION SEGMENTS =          22.2607
           GW IRRIGATION =           0.0000             GW IRRIGATION =           0.0000
           SW IRRIGATION =           0.0000             SW IRRIGATION =           0.0000
        SYSTEM LOSSES GW =           0.0000          SYSTEM LOSSES GW =           0.0000
        SYSTEM LOSSES SW =           0.0000          SYSTEM LOSSES SW =           0.0000

                TOTAL IN =  1268088192.0000                  TOTAL IN =          22.2607

          OUT:                                     OUT:
          ----                                     ----
               AG WELLS  =           0.0000                 AG WELLS  =           0.0000
      DIVERSION SEGMENTS =           0.0000        DIVERSION SEGMENTS =           0.0000
           GW IRRIGATION =   218905344.0000             GW IRRIGATION =           0.0000
           SW IRRIGATION =  1049203968.0000             SW IRRIGATION =          22.2611
        SYSTEM LOSSES GW =           0.0000          SYSTEM LOSSES GW =           0.0000
        SYSTEM LOSSES SW =           0.0000          SYSTEM LOSSES SW =           0.0000

               TOTAL OUT =  1268109312.0000                 TOTAL OUT =          22.2611

                IN - OUT =      -21120.0000                  IN - OUT =      -4.4441E-04

     PERCENT DISCREPANCY =          -0.00         PERCENT DISCREPANCY =          -0.00



1
  VOLUMETRIC BUDGET FOR ENTIRE MODEL AT END OF TIME STEP   30, STRESS PERIOD  43
  ------------------------------------------------------------------------------

     CUMULATIVE VOLUMES      L**3       RATES FOR THIS TIME STEP      L**3/T
     ------------------                 ------------------------

           IN:                                      IN:
           ---                                      ---
             STORAGE     =   385821664.0000               STORAGE     =           0.6636
       CONSTANT HEAD     =           0.0000         CONSTANT HEAD     =           0.0000
     HEAD DEP BOUNDS     =    31603854.0000       HEAD DEP BOUNDS     =           0.2863
      STREAM LEAKAGE     =  1323797376.0000        STREAM LEAKAGE     =          12.1717
        UZF RECHARGE     =     1884068.8750          UZF RECHARGE     =           0.0000
               GW ET     =           0.0000                 GW ET     =           0.0000
     SURFACE LEAKAGE     =           0.0000       SURFACE LEAKAGE     =           0.0000
           AG WELLS      =           0.0000             AG WELLS      =           0.0000

                TOTAL IN =  1743106944.0000                  TOTAL IN =          13.1216

          OUT:                                     OUT:
          ----                                     ----
             STORAGE     =   295428032.0000               STORAGE     =           1.9015
       CONSTANT HEAD     =           0.0000         CONSTANT HEAD     =           0.0000
     HEAD DEP BOUNDS     =    32157618.0000       HEAD DEP BOUNDS     =           0.2907
      STREAM LEAKAGE     =  1192751616.0000        STREAM LEAKAGE     =          10.9280
        UZF RECHARGE     =           0.0000          UZF RECHARGE     =           0.0000
               GW ET     =     3813745.5000                 GW ET     =           0.0000
     SURFACE LEAKAGE     =           0.0000       SURFACE LEAKAGE     =           0.0000
           AG WELLS      =   218905344.0000             AG WELLS      =           0.0000

               TOTAL OUT =  1743056384.0000                 TOTAL OUT =          13.1201

                IN - OUT =       50560.0000                  IN - OUT =       1.4362E-03

     PERCENT DISCREPANCY =           0.00         PERCENT DISCREPANCY =           0.01






         TIME SUMMARY AT END OF TIME STEP   30 IN STRESS PERIOD   43
                    SECONDS     MINUTES      HOURS       DAYS        YEARS
                    -----------------------------------------------------------
   TIME STEP LENGTH  87667.      1461.1      24.352      1.0147     2.77799E-03
 STRESS PERIOD TIME 2.63000E+06  43833.      730.56      30.440     8.33397E-02
         TOTAL TIME 1.10545E+08 1.84242E+06  30707.      1279.5      3.5030    
1
1
                            STRESS PERIOD NO.   44, LENGTH =   2630000.    
                            -----------------------------------------------

                              NUMBER OF TIME STEPS =    30

                               MULTIPLIER FOR DELT =     1.000

                            INITIAL TIME STEP SIZE =   87666.66    

 REUSING NON-PARAMETER GHB CELLS FROM LAST STRESS PERIOD

      2 GHB CELLS

 REUSING STREAM SEGMENT DATA FROM LAST STRESS PERIOD



            AREAL INFILTRATION RATE
 READING ON UNIT   19 WITH FORMAT: (10F4.0)            

            1           2           3           4           5           6           7           8           9          10
 ........................................................................................................................
   1   1.2000E-09   0.000       0.000       0.000       0.000       0.000       0.000       0.000       0.000       0.000    
   2   2.1000E-09  2.0000E-09  8.0000E-10  8.5000E-09   0.000       0.000       0.000       0.000       0.000       0.000    
   3   5.0000E-10  1.1000E-09  8.8000E-09  5.5000E-09   0.000       0.000       0.000       0.000       0.000       0.000    
   4   8.5000E-09  1.1000E-09  1.1000E-09  1.1000E-09  2.0000E-09   0.000       0.000       0.000       0.000       0.000    
   5   8.5000E-09  1.1000E-09  1.1000E-09  1.1000E-09  1.1000E-09   0.000       0.000       0.000       0.000       0.000    
   6   8.5000E-09  5.2000E-09  2.1000E-09  1.1000E-09  1.5000E-09   0.000       0.000       0.000       0.000       0.000    
   7   8.5000E-09  5.2000E-09  2.1000E-09  1.2000E-09  2.0000E-09   0.000       0.000       0.000       0.000       0.000    
   8   5.0000E-10  5.2000E-09  2.1000E-09  1.2000E-09  5.0000E-09   0.000       0.000       0.000       0.000       0.000    
   9   5.0000E-10  5.2000E-09  2.1000E-09  1.2000E-09  5.0000E-09   0.000       0.000       0.000       0.000       0.000    
  10   5.0000E-10  5.2000E-09  2.1000E-09  1.2000E-09  5.8000E-09   0.000       0.000       0.000       0.000       0.000    
  11   1.0000E-10  1.1000E-09  1.1000E-09  1.2000E-09  5.0000E-09   0.000       0.000       0.000       0.000       0.000    
  12   1.1000E-09  1.1000E-09  1.1000E-09  1.1000E-09  2.0000E-09   0.000       0.000       0.000       0.000       0.000    
  13   1.1000E-09  2.2000E-09  2.2000E-09  2.1000E-09  1.0000E-09   0.000       0.000       0.000       0.000       0.000    
  14   2.0000E-10  5.5000E-09  5.5000E-09  5.2000E-09  1.0000E-09   0.000       0.000       0.000       0.000       0.000    
  15    0.000      8.8000E-09  8.8000E-09   0.000       0.000       0.000       0.000       0.000       0.000       0.000    

                  ET RATE =  4.000000E-07

 USING ET EXTINCTION DEPTH FROM PREVIOUS STRESS PERIOD. CURRENT PERIOD IS:      44

 USING EXTINCTION WATER CONTENT FROM PREVIOUS STRESS PERIOD. CURRENT PERIOD IS:      44

 USING AIR ENTRY PRESSURE FROM PREVIOUS STRESS PERIOD. CURRENT PERIOD IS:      44

 USING ROOT PRESSURE HEAD FROM PREVIOUS STRESS PERIOD. CURRENT PERIOD IS:      44

 USING ROOT ACTIVITY FROM PREVIOUS STRESS PERIOD. CURRENT PERIOD IS:      44

 PROCESSING AG STRESS PERIOD DATA

 READING AG STRESS PERIOD DATA

 READING IRRIGATION SEGMENT

 READING IRRIGATION WELL

 READING SUPPLEMENTAL WELL

 END PROCESSING AG STRESS PERIOD DATA OPTIONS
 
 SOLVING FOR HEAD 
                                                   Max.-Head-Change                         Max.-Flux-Residual
  Residual-Control   Outer-Iter.   Inner-Iter.     Column Row Layer    Maximum-Head-Change  Column Row Layer    Maximum-Flux-Residual          L2-NORM 
          0                 1           2             4    7     1      -0.4360538327E-01       5    8    1        -0.2289433026E+01      0.5654715052E+01
          0                 2           2             4   13     1      -0.1528851812E-01       4   13    1        -0.8985982331E+00      0.1669720335E+01
          0                 3           2             4    7     1      -0.4064233176E-02       5    8    1        -0.2124317185E+00      0.5427827026E+00
          0                 4           2             4    7     1      -0.1861187559E-02       4    7    1        -0.9723304264E-01      0.2383179567E+00
          0                 5           2             4    7     1      -0.9475999707E-03       5    7    1        -0.4950513594E-01      0.1212622510E+00
          0                 6           2             4    7     1      -0.6003524934E-03       4    7    1        -0.3136391685E-01      0.7682480091E-01
          0                 7           2             4    7     1      -0.5192236446E-03       4    7    1        -0.2712555483E-01      0.6644334140E-01
          0                 8           2             4    7     1      -0.4307964316E-03       4    7    1        -0.2250589115E-01      0.5512755925E-01
          0                 9           2             4    7     1      -0.3591814620E-03       4    7    1        -0.1876454470E-01      0.4596323903E-01
          0                10           2             4    7     1      -0.2992979239E-03       4    7    1        -0.1563607755E-01      0.3830014396E-01
                                                   Max.-Head-Change                         Max.-Flux-Residual
  Residual-Control   Outer-Iter.   Inner-Iter.     Column Row Layer    Maximum-Head-Change  Column Row Layer    Maximum-Flux-Residual          L2-NORM 
          0                11           2             4    7     1      -0.2494176962E-03       4    7    1        -0.1303020866E-01      0.3191713942E-01
          0                12           2             4    7     1      -0.2078424816E-03       4    7    1        -0.1085821464E-01      0.2659689959E-01
          0                13           2             4    7     1      -0.1731995867E-03       4    7    1        -0.9048382514E-02      0.2216376537E-01
          0                14           2             4    7     1      -0.1443438867E-03       4    7    1        -0.7540888046E-02      0.1847119894E-01
          0                15           2             4    7     1      -0.1202854829E-03       4    7    1        -0.6284016437E-02      0.1539252640E-01
          0                16           1             4    7     1      -0.1002380133E-03       4    7    1        -0.5236686075E-02      0.1282711932E-01
          0                17           1             4    7     1      -0.8352710179E-04       4    7    1        -0.4363666041E-02      0.1068868076E-01

    ------------------------------------------------
       NWT REQUIRED           17 OUTER ITERATIONS 
       AND A TOTAL OF         32 INNER ITERATIONS.
    ------------------------------------------------

 NO OUTPUT CONTROL FOR STRESS PERIOD   44   TIME STEP    1
 
 SOLVING FOR HEAD 
                                                   Max.-Head-Change                         Max.-Flux-Residual
  Residual-Control   Outer-Iter.   Inner-Iter.     Column Row Layer    Maximum-Head-Change  Column Row Layer    Maximum-Flux-Residual          L2-NORM 
          0                 1           2             4    7     1      -0.6564544776E-01       4    7    1        -0.3431163596E+01      0.8350393214E+01
          0                 2           2             4   13     1      -0.1532456575E-01       4   13    1        -0.9007351117E+00      0.1765546019E+01
          0                 3           2             7   13     1      -0.1774318208E-02       7   13    1        -0.9900696821E-01      0.1650892630E+00
          0                 4           2             7   13     1       0.1207675473E-03       7   13    1         0.6922509284E-02      0.1405384062E-01
          0                 5           1             4    7     1      -0.8581649640E-04       4    7    1        -0.4737712983E-02      0.1160728222E-01

    ------------------------------------------------
       NWT REQUIRED            5 OUTER ITERATIONS 
       AND A TOTAL OF          9 INNER ITERATIONS.
    ------------------------------------------------

 NO OUTPUT CONTROL FOR STRESS PERIOD   44   TIME STEP    2
 
 SOLVING FOR HEAD 
                                                   Max.-Head-Change                         Max.-Flux-Residual
  Residual-Control   Outer-Iter.   Inner-Iter.     Column Row Layer    Maximum-Head-Change  Column Row Layer    Maximum-Flux-Residual          L2-NORM 
          0                 1           2             4    7     1      -0.6522598365E-01       4    7    1        -0.3410677894E+01      0.8200125582E+01
          0                 2           2             4   13     1      -0.1540897325E-01       4   13    1        -0.9057107802E+00      0.1765444846E+01
          0                 3           2             7   13     1      -0.1764574824E-02       7   13    1        -0.9846432026E-01      0.1646339750E+00
          0                 4           2             7   13     1       0.1201058985E-03       7   13    1         0.6884618886E-02      0.1410093212E-01
          0                 5           1             4    7     1      -0.8604363516E-04       4    7    1        -0.4747668353E-02      0.1163048843E-01

    ------------------------------------------------
       NWT REQUIRED            5 OUTER ITERATIONS 
       AND A TOTAL OF          9 INNER ITERATIONS.
    ------------------------------------------------

 NO OUTPUT CONTROL FOR STRESS PERIOD   44   TIME STEP    3
 
 SOLVING FOR HEAD 
                                                   Max.-Head-Change                         Max.-Flux-Residual
  Residual-Control   Outer-Iter.   Inner-Iter.     Column Row Layer    Maximum-Head-Change  Column Row Layer    Maximum-Flux-Residual          L2-NORM 
          0                 1           2             4    7     1      -0.6482291431E-01       4    7    1        -0.3389127436E+01      0.8058379489E+01
          0                 2           2             4   13     1      -0.1548574418E-01       4   13    1        -0.9102349094E+00      0.1765225163E+01
          0                 3           2             7   13     1      -0.1755134544E-02       7   13    1        -0.9793855289E-01      0.1641551423E+00
          0                 4           2             7   13     1       0.1194635816E-03       7   13    1         0.6847837402E-02      0.1410418209E-01
          0                 5           1             4    7     1      -0.8587374545E-04       4    7    1        -0.4738308460E-02      0.1160631392E-01

    ------------------------------------------------
       NWT REQUIRED            5 OUTER ITERATIONS 
       AND A TOTAL OF          9 INNER ITERATIONS.
    ------------------------------------------------

 NO OUTPUT CONTROL FOR STRESS PERIOD   44   TIME STEP    4
 
 SOLVING FOR HEAD 
                                                   Max.-Head-Change                         Max.-Flux-Residual
  Residual-Control   Outer-Iter.   Inner-Iter.     Column Row Layer    Maximum-Head-Change  Column Row Layer    Maximum-Flux-Residual          L2-NORM 
          0                 1           2             4    7     1      -0.6439542784E-01       4    7    1        -0.3368137510E+01      0.7924559659E+01
          0                 2           2             4   13     1      -0.1555526726E-01       4   13    1        -0.9143304789E+00      0.1764961930E+01
          0                 3           2             7   13     1      -0.1745980399E-02       7   13    1        -0.9742872782E-01      0.1636896276E+00
          0                 4           2             7   13     1       0.1188391867E-03       7   13    1         0.6812081739E-02      0.1410516862E-01
          0                 5           1             4    7     1      -0.8572544171E-04       4    7    1        -0.4730137539E-02      0.1158516304E-01

    ------------------------------------------------
       NWT REQUIRED            5 OUTER ITERATIONS 
       AND A TOTAL OF          9 INNER ITERATIONS.
    ------------------------------------------------

 NO OUTPUT CONTROL FOR STRESS PERIOD   44   TIME STEP    5
 
 SOLVING FOR HEAD 
                                                   Max.-Head-Change                         Max.-Flux-Residual
  Residual-Control   Outer-Iter.   Inner-Iter.     Column Row Layer    Maximum-Head-Change  Column Row Layer    Maximum-Flux-Residual          L2-NORM 
          0                 1           2             4    7     1      -0.7156121300E-01       4    7    1        -0.3743503606E+01      0.8750591139E+01
          0                 2           2             4   13     1      -0.1460090133E-01       4   13    1        -0.8582512339E+00      0.1716359049E+01
          0                 3           2             7   13     1      -0.1755371661E-02       7   13    1        -0.9794149257E-01      0.1622693502E+00
          0                 4           2             7   13     1       0.1194814144E-03       7   13    1         0.6848406395E-02      0.1383301144E-01
          0                 5           1             4    7     1      -0.8566592765E-04       4    7    1        -0.4726829634E-02      0.1157601795E-01

    ------------------------------------------------
       NWT REQUIRED            5 OUTER ITERATIONS 
       AND A TOTAL OF          9 INNER ITERATIONS.
    ------------------------------------------------

 NO OUTPUT CONTROL FOR STRESS PERIOD   44   TIME STEP    6
 
 SOLVING FOR HEAD 
                                                   Max.-Head-Change                         Max.-Flux-Residual
  Residual-Control   Outer-Iter.   Inner-Iter.     Column Row Layer    Maximum-Head-Change  Column Row Layer    Maximum-Flux-Residual          L2-NORM 
          0                 1           2             4    7     1      -0.7277805695E-01       4    7    1        -0.3808297592E+01      0.8826894315E+01
          0                 2           2             4   13     1      -0.1442679543E-01       4   13    1        -0.8480251587E+00      0.1704565613E+01
          0                 3           2             7   13     1      -0.1750946722E-02       7   13    1        -0.9769271371E-01      0.1615776409E+00
          0                 4           2             7   13     1       0.1191777491E-03       7   13    1         0.6830920144E-02      0.1377511096E-01
          0                 5           1             4    7     1      -0.8553969530E-04       4    7    1        -0.4719873306E-02      0.1155795470E-01

    ------------------------------------------------
       NWT REQUIRED            5 OUTER ITERATIONS 
       AND A TOTAL OF          9 INNER ITERATIONS.
    ------------------------------------------------

 NO OUTPUT CONTROL FOR STRESS PERIOD   44   TIME STEP    7
 
 SOLVING FOR HEAD 
                                                   Max.-Head-Change                         Max.-Flux-Residual
  Residual-Control   Outer-Iter.   Inner-Iter.     Column Row Layer    Maximum-Head-Change  Column Row Layer    Maximum-Flux-Residual          L2-NORM 
          0                 1           2             4    7     1      -0.7224130729E-01       4    7    1        -0.3781475126E+01      0.8689685223E+01
          0                 2           2             4   13     1      -0.1447775794E-01       4   13    1        -0.8510245905E+00      0.1701837561E+01
          0                 3           2             7   13     1      -0.1742592180E-02       7   13    1        -0.9722742519E-01      0.1610057259E+00
          0                 4           2             7   13     1       0.1186103897E-03       7   13    1         0.6798429616E-02      0.1377827327E-01
          0                 5           1             4    7     1      -0.8537706332E-04       4    7    1        -0.4710910145E-02      0.1153496741E-01

    ------------------------------------------------
       NWT REQUIRED            5 OUTER ITERATIONS 
       AND A TOTAL OF          9 INNER ITERATIONS.
    ------------------------------------------------

 NO OUTPUT CONTROL FOR STRESS PERIOD   44   TIME STEP    8
 
 SOLVING FOR HEAD 
                                                   Max.-Head-Change                         Max.-Flux-Residual
  Residual-Control   Outer-Iter.   Inner-Iter.     Column Row Layer    Maximum-Head-Change  Column Row Layer    Maximum-Flux-Residual          L2-NORM 
          0                 1           2             4    7     1      -0.7168590469E-01       4    7    1        -0.3753568903E+01      0.8558686177E+01
          0                 2           2             4   13     1      -0.1452416059E-01       4   13    1        -0.8537546799E+00      0.1699219138E+01
          0                 3           2             7   13     1      -0.1734480900E-02       7   13    1        -0.9677569670E-01      0.1604539284E+00
          0                 4           2             7   13     1       0.1180564671E-03       7   13    1         0.6766710630E-02      0.1378188490E-01
          0                 5           1             4    7     1      -0.8521387254E-04       4    7    1        -0.4701914996E-02      0.1151199021E-01

    ------------------------------------------------
       NWT REQUIRED            5 OUTER ITERATIONS 
       AND A TOTAL OF          9 INNER ITERATIONS.
    ------------------------------------------------

 NO OUTPUT CONTROL FOR STRESS PERIOD   44   TIME STEP    9
 
 SOLVING FOR HEAD 
                                                   Max.-Head-Change                         Max.-Flux-Residual
  Residual-Control   Outer-Iter.   Inner-Iter.     Column Row Layer    Maximum-Head-Change  Column Row Layer    Maximum-Flux-Residual          L2-NORM 
          0                 1           2             4    7     1      -0.7111451101E-01       4    7    1        -0.3724725601E+01      0.8433486913E+01
          0                 2           2             4   13     1      -0.1456644495E-01       4   13    1        -0.8562416226E+00      0.1692377576E+01
          0                 3           2             7   13     1      -0.1726608009E-02       7   13    1        -0.9633724259E-01      0.1589356232E+00
          0                 4           2             7   13     1       0.1175221691E-03       7   13    1         0.6736113484E-02      0.1283856438E-01
          0                 5           1             4    7     1      -0.7764513008E-04       4    7    1        -0.4284308236E-02      0.1048854867E-01

    ------------------------------------------------
       NWT REQUIRED            5 OUTER ITERATIONS 
       AND A TOTAL OF          9 INNER ITERATIONS.
    ------------------------------------------------

 NO OUTPUT CONTROL FOR STRESS PERIOD   44   TIME STEP   10
 
 SOLVING FOR HEAD 
                                                   Max.-Head-Change                         Max.-Flux-Residual
  Residual-Control   Outer-Iter.   Inner-Iter.     Column Row Layer    Maximum-Head-Change  Column Row Layer    Maximum-Flux-Residual          L2-NORM 
          0                 1           2             4    7     1      -0.7052808854E-01       4    7    1        -0.3695002568E+01      0.8313517023E+01
          0                 2           2             4   13     1      -0.1460503091E-01       4   13    1        -0.8585102436E+00      0.1682582793E+01
          0                 3           2             7   13     1      -0.1718961982E-02       7   13    1        -0.9591143242E-01      0.1612306819E+00
          0                 4           2             7   13     1       0.1170016966E-03       7   13    1         0.6706313091E-02      0.1140614235E-01
          0                 5           1             4    7     1      -0.5146043245E-04       4    7    1        -0.2839543545E-02      0.6950712818E-02

    ------------------------------------------------
       NWT REQUIRED            5 OUTER ITERATIONS 
       AND A TOTAL OF          9 INNER ITERATIONS.
    ------------------------------------------------

 NO OUTPUT CONTROL FOR STRESS PERIOD   44   TIME STEP   11
 
 SOLVING FOR HEAD 
                                                   Max.-Head-Change                         Max.-Flux-Residual
  Residual-Control   Outer-Iter.   Inner-Iter.     Column Row Layer    Maximum-Head-Change  Column Row Layer    Maximum-Flux-Residual          L2-NORM 
          0                 1           2             4    7     1      -0.6992675084E-01       4    7    1        -0.3664412822E+01      0.8198111999E+01
          0                 2           2             4   13     1      -0.1464022571E-01       4   13    1        -0.8605787382E+00      0.1675847133E+01
          0                 3           2             7   13     1      -0.1711532045E-02       7   13    1        -0.9549765581E-01      0.1628821077E+00
          0                 4           2             7   13     1       0.1164952215E-03       7   13    1         0.6677309561E-02      0.1324184669E-01
          0                 5           1             4    7     1      -0.4845860932E-04       4    7    1        -0.2673920767E-02      0.6544630079E-02

    ------------------------------------------------
       NWT REQUIRED            5 OUTER ITERATIONS 
       AND A TOTAL OF          9 INNER ITERATIONS.
    ------------------------------------------------

 NO OUTPUT CONTROL FOR STRESS PERIOD   44   TIME STEP   12
 
 SOLVING FOR HEAD 
                                                   Max.-Head-Change                         Max.-Flux-Residual
  Residual-Control   Outer-Iter.   Inner-Iter.     Column Row Layer    Maximum-Head-Change  Column Row Layer    Maximum-Flux-Residual          L2-NORM 
          0                 1           2             4    7     1      -0.6931269682E-01       4    7    1        -0.3633077687E+01      0.8086987674E+01
          0                 2           2             4   13     1      -0.1467235247E-01       4   13    1        -0.8624662380E+00      0.1671969439E+01
          0                 3           2             7   13     1      -0.1704316665E-02       7   13    1        -0.9509583353E-01      0.1632337980E+00
          0                 4           2             7   13     1       0.1160039151E-03       7   13    1         0.6649176851E-02      0.1404322675E-01
          0                 5           1             4    7     1      -0.5197407136E-04       4    7    1        -0.2867896179E-02      0.7018709752E-02

    ------------------------------------------------
       NWT REQUIRED            5 OUTER ITERATIONS 
       AND A TOTAL OF          9 INNER ITERATIONS.
    ------------------------------------------------

 NO OUTPUT CONTROL FOR STRESS PERIOD   44   TIME STEP   13
 
 SOLVING FOR HEAD 
                                                   Max.-Head-Change                         Max.-Flux-Residual
  Residual-Control   Outer-Iter.   Inner-Iter.     Column Row Layer    Maximum-Head-Change  Column Row Layer    Maximum-Flux-Residual          L2-NORM 
          0                 1           2             4    7     1      -0.6868849187E-01       4    7    1        -0.3601134532E+01      0.7980087996E+01
          0                 2           2             4   13     1      -0.1470173682E-01       4   13    1        -0.8641919940E+00      0.1669907831E+01
          0                 3           2             7   13     1      -0.1697303056E-02       7   13    1        -0.9470525265E-01      0.1627474518E+00
          0                 4           2             7   13     1       0.1155263580E-03       7   13    1         0.6621831168E-02      0.1408492566E-01
          0                 5           1             4    7     1      -0.5206302908E-04       4    7    1        -0.2872809647E-02      0.7030147072E-02

    ------------------------------------------------
       NWT REQUIRED            5 OUTER ITERATIONS 
       AND A TOTAL OF          9 INNER ITERATIONS.
    ------------------------------------------------

 NO OUTPUT CONTROL FOR STRESS PERIOD   44   TIME STEP   14
 
 SOLVING FOR HEAD 
                                                   Max.-Head-Change                         Max.-Flux-Residual
  Residual-Control   Outer-Iter.   Inner-Iter.     Column Row Layer    Maximum-Head-Change  Column Row Layer    Maximum-Flux-Residual          L2-NORM 
          0                 1           2             4    7     1      -0.6805628485E-01       4    7    1        -0.3568698232E+01      0.7877331400E+01
          0                 2           2             4   13     1      -0.1472858337E-01       4   13    1        -0.8657681067E+00      0.1667905897E+01
          0                 3           2             7   13     1      -0.1690482453E-02       7   13    1        -0.9432542411E-01      0.1622746998E+00
          0                 4           2             7   13     1       0.1150613129E-03       7   13    1         0.6595204402E-02      0.1412610932E-01
          0                 5           1             4    7     1      -0.5215187581E-04       4    7    1        -0.2877716019E-02      0.7041611368E-02

    ------------------------------------------------
       NWT REQUIRED            5 OUTER ITERATIONS 
       AND A TOTAL OF          9 INNER ITERATIONS.
    ------------------------------------------------

 NO OUTPUT CONTROL FOR STRESS PERIOD   44   TIME STEP   15
 
 SOLVING FOR HEAD 
                                                   Max.-Head-Change                         Max.-Flux-Residual
  Residual-Control   Outer-Iter.   Inner-Iter.     Column Row Layer    Maximum-Head-Change  Column Row Layer    Maximum-Flux-Residual          L2-NORM 
          0                 1           2             4    7     1      -0.6741741061E-01       4    7    1        -0.3535843737E+01      0.7778440698E+01
          0                 2           2             4   13     1      -0.1475317855E-01       4   13    1        -0.8672115184E+00      0.1665959941E+01
          0                 3           2             7   13     1      -0.1683852000E-02       7   13    1        -0.9395618795E-01      0.1618151970E+00
          0                 4           2             7   13     1       0.1146114158E-03       7   13    1         0.6569442547E-02      0.1416538254E-01
          0                 5           1             4    7     1      -0.5224966138E-04       4    7    1        -0.2883114674E-02      0.7054344784E-02

    ------------------------------------------------
       NWT REQUIRED            5 OUTER ITERATIONS 
       AND A TOTAL OF          9 INNER ITERATIONS.
    ------------------------------------------------

 NO OUTPUT CONTROL FOR STRESS PERIOD   44   TIME STEP   16
 
 SOLVING FOR HEAD 
                                                   Max.-Head-Change                         Max.-Flux-Residual
  Residual-Control   Outer-Iter.   Inner-Iter.     Column Row Layer    Maximum-Head-Change  Column Row Layer    Maximum-Flux-Residual          L2-NORM 
          0                 1           2             4    7     1      -0.6677340807E-01       4    7    1        -0.3502656915E+01      0.7683191041E+01
          0                 2           2             4   13     1      -0.1477571436E-01       4   13    1        -0.8685335818E+00      0.1664062377E+01
          0                 3           2             7   13     1      -0.1677399840E-02       7   13    1        -0.9359688696E-01      0.1613702380E+00
          0                 4           2             7   13     1       0.1141713388E-03       7   13    1         0.6544245400E-02      0.1420516996E-01
          0                 5           1             4    7     1      -0.5233874833E-04       4    7    1        -0.2888032512E-02      0.7065947031E-02

    ------------------------------------------------
       NWT REQUIRED            5 OUTER ITERATIONS 
       AND A TOTAL OF          9 INNER ITERATIONS.
    ------------------------------------------------

 NO OUTPUT CONTROL FOR STRESS PERIOD   44   TIME STEP   17
 
 SOLVING FOR HEAD 
                                                   Max.-Head-Change                         Max.-Flux-Residual
  Residual-Control   Outer-Iter.   Inner-Iter.     Column Row Layer    Maximum-Head-Change  Column Row Layer    Maximum-Flux-Residual          L2-NORM 
          0                 1           2             4    7     1      -0.6612522702E-01       4    7    1        -0.3469190873E+01      0.7591356620E+01
          0                 2           2             4   13     1      -0.1479634491E-01       4   13    1        -0.8697434029E+00      0.1662209100E+01
          0                 3           2             7   13     1      -0.1671124150E-02       7   13    1        -0.9324741504E-01      0.1609330351E+00
          0                 4           2             7   13     1       0.1137451097E-03       7   13    1         0.6519839462E-02      0.1424290014E-01
          0                 5           1             4    7     1      -0.5242777611E-04       4    7    1        -0.2892946271E-02      0.7077596486E-02

    ------------------------------------------------
       NWT REQUIRED            5 OUTER ITERATIONS 
       AND A TOTAL OF          9 INNER ITERATIONS.
    ------------------------------------------------

 NO OUTPUT CONTROL FOR STRESS PERIOD   44   TIME STEP   18
 
 SOLVING FOR HEAD 
                                                   Max.-Head-Change                         Max.-Flux-Residual
  Residual-Control   Outer-Iter.   Inner-Iter.     Column Row Layer    Maximum-Head-Change  Column Row Layer    Maximum-Flux-Residual          L2-NORM 
          0                 1           2             4    7     1      -0.6547394229E-01       4    7    1        -0.3435506774E+01      0.7502721636E+01
          0                 2           2             4   13     1      -0.1481530895E-01       4   13    1        -0.8708550866E+00      0.1660399733E+01
          0                 3           2             7   13     1      -0.1665014401E-02       7   13    1        -0.9290718533E-01      0.1603515129E+00
          0                 4           2             7   13     1       0.1133282508E-03       7   13    1         0.6495970928E-02      0.1421351797E-01
          0                 5           1             4    7     1      -0.5249914418E-04       4    7    1        -0.2896884944E-02      0.7086873885E-02

    ------------------------------------------------
       NWT REQUIRED            5 OUTER ITERATIONS 
       AND A TOTAL OF          9 INNER ITERATIONS.
    ------------------------------------------------

 NO OUTPUT CONTROL FOR STRESS PERIOD   44   TIME STEP   19
 
 SOLVING FOR HEAD 
                                                   Max.-Head-Change                         Max.-Flux-Residual
  Residual-Control   Outer-Iter.   Inner-Iter.     Column Row Layer    Maximum-Head-Change  Column Row Layer    Maximum-Flux-Residual          L2-NORM 
          0                 1           2             4    7     1      -0.6482059511E-01       4    7    1        -0.3401661770E+01      0.7417130300E+01
          0                 2           2             4   13     1      -0.1483269157E-01       4   13    1        -0.8718736567E+00      0.1658630412E+01
          0                 3           2             7   13     1      -0.1659068073E-02       7   13    1        -0.9257606092E-01      0.1600981141E+00
          0                 4           2             7   13     1       0.1129234898E-03       7   13    1         0.6472795417E-02      0.1432081945E-01
          0                 5           1             4    7     1      -0.5258777505E-04       4    7    1        -0.2901775384E-02      0.7098567976E-02

    ------------------------------------------------
       NWT REQUIRED            5 OUTER ITERATIONS 
       AND A TOTAL OF          9 INNER ITERATIONS.
    ------------------------------------------------

 NO OUTPUT CONTROL FOR STRESS PERIOD   44   TIME STEP   20
 
 SOLVING FOR HEAD 
                                                   Max.-Head-Change                         Max.-Flux-Residual
  Residual-Control   Outer-Iter.   Inner-Iter.     Column Row Layer    Maximum-Head-Change  Column Row Layer    Maximum-Flux-Residual          L2-NORM 
          0                 1           2             4    7     1      -0.6416615051E-01       4    7    1        -0.3367711276E+01      0.7334385989E+01
          0                 2           2             4   13     1      -0.1484868130E-01       4   13    1        -0.8728102761E+00      0.1656900469E+01
          0                 3           2             7   13     1      -0.1653277095E-02       7   13    1        -0.9225358487E-01      0.1596968654E+00
          0                 4           2             7   13     1       0.1125308518E-03       7   13    1         0.6450312771E-02      0.1435785297E-01
          0                 5           1             4    7     1      -0.5267676378E-04       4    7    1        -0.2906684946E-02      0.7110324054E-02

    ------------------------------------------------
       NWT REQUIRED            5 OUTER ITERATIONS 
       AND A TOTAL OF          9 INNER ITERATIONS.
    ------------------------------------------------

 NO OUTPUT CONTROL FOR STRESS PERIOD   44   TIME STEP   21
 
 SOLVING FOR HEAD 
                                                   Max.-Head-Change                         Max.-Flux-Residual
  Residual-Control   Outer-Iter.   Inner-Iter.     Column Row Layer    Maximum-Head-Change  Column Row Layer    Maximum-Flux-Residual          L2-NORM 
          0                 1           2             4    7     1      -0.6351172885E-01       4    7    1        -0.3333717241E+01      0.7254356933E+01
          0                 2           2             4   13     1      -0.1486341357E-01       4   13    1        -0.8736729295E+00      0.1655207771E+01
          0                 3           2             7   13     1      -0.1647635705E-02       7   13    1        -0.9193945659E-01      0.1593054139E+00
          0                 4           2             7   13     1       0.1121456949E-03       7   13    1         0.6428313797E-02      0.1439587742E-01
          0                 5           1             4    7     1      -0.5274808333E-04       4    7    1        -0.2910619030E-02      0.7119725824E-02

    ------------------------------------------------
       NWT REQUIRED            5 OUTER ITERATIONS 
       AND A TOTAL OF          9 INNER ITERATIONS.
    ------------------------------------------------

 NO OUTPUT CONTROL FOR STRESS PERIOD   44   TIME STEP   22
 
 SOLVING FOR HEAD 
                                                   Max.-Head-Change                         Max.-Flux-Residual
  Residual-Control   Outer-Iter.   Inner-Iter.     Column Row Layer    Maximum-Head-Change  Column Row Layer    Maximum-Flux-Residual          L2-NORM 
          0                 1           2             4    7     1      -0.6285770184E-01       4    7    1        -0.3299701802E+01      0.7176881466E+01
          0                 2           2             4   13     1      -0.1487698487E-01       4   13    1        -0.8744672714E+00      0.1653554424E+01
          0                 3           2             7   13     1      -0.1642141619E-02       7   13    1        -0.9163352163E-01      0.1589264652E+00
          0                 4           2             7   13     1       0.1117728667E-03       7   13    1         0.6407346828E-02      0.1443421137E-01
          0                 5           1             4    7     1      -0.5283639918E-04       4    7    1        -0.2915490310E-02      0.7131461840E-02

    ------------------------------------------------
       NWT REQUIRED            5 OUTER ITERATIONS 
       AND A TOTAL OF          9 INNER ITERATIONS.
    ------------------------------------------------

 NO OUTPUT CONTROL FOR STRESS PERIOD   44   TIME STEP   23
 
 SOLVING FOR HEAD 
                                                   Max.-Head-Change                         Max.-Flux-Residual
  Residual-Control   Outer-Iter.   Inner-Iter.     Column Row Layer    Maximum-Head-Change  Column Row Layer    Maximum-Flux-Residual          L2-NORM 
          0                 1           2             4    7     1      -0.6220504987E-01       4    7    1        -0.3265720161E+01      0.7101818481E+01
          0                 2           2             4   13     1      -0.1488947844E-01       4   13    1        -0.8751982629E+00      0.1651930948E+01
          0                 3           2             7   13     1      -0.1636785469E-02       7   13    1        -0.9133527842E-01      0.1585548210E+00
          0                 4           2             7   13     1       0.1114066149E-03       7   13    1         0.6386378070E-02      0.1447084152E-01
          0                 5           1             4    7     1      -0.5294236327E-04       4    7    1        -0.2921334873E-02      0.7145608962E-02

    ------------------------------------------------
       NWT REQUIRED            5 OUTER ITERATIONS 
       AND A TOTAL OF          9 INNER ITERATIONS.
    ------------------------------------------------

 NO OUTPUT CONTROL FOR STRESS PERIOD   44   TIME STEP   24
 
 SOLVING FOR HEAD 
                                                   Max.-Head-Change                         Max.-Flux-Residual
  Residual-Control   Outer-Iter.   Inner-Iter.     Column Row Layer    Maximum-Head-Change  Column Row Layer    Maximum-Flux-Residual          L2-NORM 
          0                 1           2             4    7     1      -0.6155436757E-01       4    7    1        -0.3231805303E+01      0.7029079126E+01
          0                 2           2             4   13     1      -0.1490101321E-01       4   13    1        -0.8758729194E+00      0.1650343556E+01
          0                 3           2             7   13     1      -0.1631563666E-02       7   13    1        -0.9104452000E-01      0.1581957992E+00
          0                 4           2             7   13     1       0.1110517586E-03       7   13    1         0.6366062729E-02      0.1450880739E-01
          0                 5           1             4    7     1      -0.5303072646E-04       4    7    1        -0.2926207793E-02      0.7157403371E-02

    ------------------------------------------------
       NWT REQUIRED            5 OUTER ITERATIONS 
       AND A TOTAL OF          9 INNER ITERATIONS.
    ------------------------------------------------

 NO OUTPUT CONTROL FOR STRESS PERIOD   44   TIME STEP   25
 
 SOLVING FOR HEAD 
                                                   Max.-Head-Change                         Max.-Flux-Residual
  Residual-Control   Outer-Iter.   Inner-Iter.     Column Row Layer    Maximum-Head-Change  Column Row Layer    Maximum-Flux-Residual          L2-NORM 
          0                 1           2             4    7     1      -0.6090626463E-01       4    7    1        -0.3197992596E+01      0.6958517091E+01
          0                 2           2             4   13     1      -0.1491166448E-01       4   13    1        -0.8764956117E+00      0.1648789883E+01
          0                 3           2             7   13     1      -0.1626473073E-02       7   13    1        -0.9076106521E-01      0.1578430755E+00
          0                 4           2             7   13     1       0.1107050577E-03       7   13    1         0.6346212916E-02      0.1454740273E-01
          0                 5           1             4    7     1      -0.5312737835E-04       4    7    1        -0.2931537648E-02      0.7170343388E-02

    ------------------------------------------------
       NWT REQUIRED            5 OUTER ITERATIONS 
       AND A TOTAL OF          9 INNER ITERATIONS.
    ------------------------------------------------

 NO OUTPUT CONTROL FOR STRESS PERIOD   44   TIME STEP   26
 
 SOLVING FOR HEAD 
                                                   Max.-Head-Change                         Max.-Flux-Residual
  Residual-Control   Outer-Iter.   Inner-Iter.     Column Row Layer    Maximum-Head-Change  Column Row Layer    Maximum-Flux-Residual          L2-NORM 
          0                 1           2             4    7     1      -0.6026141057E-01       4    7    1        -0.3164319598E+01      0.6890039727E+01
          0                 2           2             4   13     1      -0.1492151038E-01       4   13    1        -0.8770710921E+00      0.1647265038E+01
          0                 3           2             7   13     1      -0.1621507459E-02       7   13    1        -0.9048457532E-01      0.1575005169E+00
          0                 4           2             7   13     1       0.1103679090E-03       7   13    1         0.6326911075E-02      0.1458453868E-01
          0                 5           1             4    7     1      -0.5321580450E-04       4    7    1        -0.2936413259E-02      0.7182196220E-02

    ------------------------------------------------
       NWT REQUIRED            5 OUTER ITERATIONS 
       AND A TOTAL OF          9 INNER ITERATIONS.
    ------------------------------------------------

 NO OUTPUT CONTROL FOR STRESS PERIOD   44   TIME STEP   27
 
 SOLVING FOR HEAD 
                                                   Max.-Head-Change                         Max.-Flux-Residual
  Residual-Control   Outer-Iter.   Inner-Iter.     Column Row Layer    Maximum-Head-Change  Column Row Layer    Maximum-Flux-Residual          L2-NORM 
          0                 1           2             4    7     1      -0.5965642444E-01       4    7    1        -0.3132700262E+01      0.6827775414E+01
          0                 2           2             4   13     1      -0.1492573942E-01       4   13    1        -0.8773164984E+00      0.1645466571E+01
          0                 3           2             7   13     1      -0.1616751619E-02       7   13    1        -0.9021972075E-01      0.1571596704E+00
          0                 4           2             7   13     1       0.1100465174E-03       7   13    1         0.6308508348E-02      0.1462206882E-01
          0                 5           1             4    7     1      -0.5331258052E-04       4    7    1        -0.2941749201E-02      0.7195207863E-02

    ------------------------------------------------
       NWT REQUIRED            5 OUTER ITERATIONS 
       AND A TOTAL OF          9 INNER ITERATIONS.
    ------------------------------------------------

 NO OUTPUT CONTROL FOR STRESS PERIOD   44   TIME STEP   28
 
 SOLVING FOR HEAD 
                                                   Max.-Head-Change                         Max.-Flux-Residual
  Residual-Control   Outer-Iter.   Inner-Iter.     Column Row Layer    Maximum-Head-Change  Column Row Layer    Maximum-Flux-Residual          L2-NORM 
          0                 1           2             4    7     1      -0.9854933991E-01       4    7    1        -0.5163301309E+01      0.1156357748E+02
          0                 2           2             4   13     1      -0.9623848841E-02       4   13    1        -0.5657306144E+00      0.1469519034E+01
          0                 3           2             7   13     1      -0.1714432847E-02       7   13    1        -0.9560508140E-01      0.1595813768E+00
          0                 4           2             7   13     1       0.1166928694E-03       7   13    1         0.6686834347E-02      0.1327570769E-01
          0                 5           1             4    7     1      -0.5389682279E-04       4    7    1        -0.2973981124E-02      0.7274654383E-02

    ------------------------------------------------
       NWT REQUIRED            5 OUTER ITERATIONS 
       AND A TOTAL OF          9 INNER ITERATIONS.
    ------------------------------------------------

 NO OUTPUT CONTROL FOR STRESS PERIOD   44   TIME STEP   29
 
 SOLVING FOR HEAD 
                                                   Max.-Head-Change                         Max.-Flux-Residual
  Residual-Control   Outer-Iter.   Inner-Iter.     Column Row Layer    Maximum-Head-Change  Column Row Layer    Maximum-Flux-Residual          L2-NORM 
          0                 1           2             4    7     1      -0.9770721831E-01       4    7    1        -0.5120212326E+01      0.1141595586E+02
          0                 2           2             4   13     1      -0.9630452187E-02       4   13    1        -0.5661159173E+00      0.1458757374E+01
          0                 3           2             7   13     1      -0.1709818056E-02       7   13    1        -0.9534811928E-01      0.1587276180E+00
          0                 4           2             7   13     1       0.1163795217E-03       7   13    1         0.6668893386E-02      0.1333643957E-01
          0                 5           1             4    7     1      -0.5398272288E-04       4    7    1        -0.2978727447E-02      0.7285376665E-02

    ------------------------------------------------
       NWT REQUIRED            5 OUTER ITERATIONS 
       AND A TOTAL OF          9 INNER ITERATIONS.
    ------------------------------------------------

 NO OUTPUT CONTROL FOR STRESS PERIOD   44   TIME STEP   30



 STREAM LISTING     PERIOD     44   STEP       30

 LAYER ROW COL. STREAM  RCH.  FLOW INTO     FLOW TO   FLOW OUT OF   OVRLND.     DIRECT     STREAM       STREAM     STREAM     STREAM   STREAMBED  STREAMBED
                SEG.NO.  NO.  STRM. RCH.    AQUIFER    STRM. RCH.    RUNOFF     PRECIP       ET          HEAD       DEPTH      WIDTH   CONDCTNC.   GRADIENT

   1    1    1     1     1    2.7749E+01  2.5751E-01   2.7492E+01  0.000E+00  0.000E+00  0.000E+00  1.09427E+03  1.218E+00  1.357E+01  6.105E-02  1.406E+00
   1    2    2     1     2    2.7492E+01  3.9832E-01   2.7093E+01  0.000E+00  0.000E+00  0.000E+00  1.08927E+03  1.213E+00  1.351E+01  9.454E-02  1.404E+00
   1    3    3     1     3    2.7093E+01  3.3923E-01   2.6754E+01  0.000E+00  0.000E+00  0.000E+00  1.08363E+03  1.208E+00  1.344E+01  8.062E-02  1.403E+00
   1    3    4     1     4    2.6754E+01  3.1200E-01   2.6442E+01  0.000E+00  0.000E+00  0.000E+00  1.07861E+03  1.203E+00  1.337E+01  7.422E-02  1.401E+00
   1    4    5     2     1    2.4442E+01  3.2655E-01   2.4116E+01  0.000E+00  0.000E+00  0.000E+00  1.07312E+03  1.187E+00  1.200E+01  7.800E-02  1.396E+00
   1    5    6     2     2    2.4116E+01  2.5068E-01   2.3865E+01  0.000E+00  0.000E+00  0.000E+00  1.06769E+03  1.178E+00  1.200E+01  6.000E-02  1.393E+00
   1    6    6     2     3    2.3865E+01  2.5024E-01   2.3615E+01  0.000E+00  0.000E+00  0.000E+00  1.06296E+03  1.171E+00  1.200E+01  6.000E-02  1.390E+00
   1    7    6     2     4    2.3615E+01  2.4979E-01   2.3365E+01  0.000E+00  0.000E+00  0.000E+00  1.05824E+03  1.163E+00  1.200E+01  6.000E-02  1.388E+00
   1    8    6     2     5    2.3365E+01  2.4935E-01   2.3115E+01  0.000E+00  0.000E+00  0.000E+00  1.05351E+03  1.156E+00  1.200E+01  6.000E-02  1.385E+00
   1    3    5     3     1    2.0000E+00  2.8252E-01   1.7175E+00  0.000E+00  0.000E+00  0.000E+00  1.07555E+03  1.909E+00  9.636E+00  7.227E-02  1.955E+00
   1    3    6     3     2    1.7175E+00  2.4905E-01   1.4684E+00  0.000E+00  0.000E+00  0.000E+00  1.07264E+03  1.727E+00  8.909E+00  6.682E-02  1.864E+00
   1    3    7     3     3    1.4684E+00  1.9718E-01   1.2712E+00  0.000E+00  0.000E+00  0.000E+00  1.06987E+03  1.555E+00  8.218E+00  5.547E-02  1.777E+00
   1    4    8     3     4    1.2712E+00  2.2567E-01   1.0456E+00  0.000E+00  0.000E+00  0.000E+00  1.06682E+03  1.364E+00  7.455E+00  6.709E-02  1.682E+00
   1    5    8     3     5    1.0456E+00  1.5790E-01   8.8768E-01  0.000E+00  0.000E+00  0.000E+00  1.06362E+03  1.164E+00  6.655E+00  4.991E-02  1.582E+00
   1    6    8     3     6    8.8768E-01  5.5980E-02   8.3170E-01  0.000E+00  0.000E+00  0.000E+00  1.06158E+03  1.036E+00  6.145E+00  1.844E-02  1.518E+00
   1    5   10     4     1    1.0000E+01  9.0919E-02   9.9091E+00  0.000E+00  0.000E+00  0.000E+00  1.07836E+03  6.368E-01  1.000E+01  2.500E-02  1.212E+00
   1    5    9     4     2    9.9091E+00  1.8158E-01   9.7275E+00  0.000E+00  0.000E+00  0.000E+00  1.07154E+03  6.315E-01  1.000E+01  5.000E-02  1.211E+00
   1    6    8     4     3    9.7275E+00  1.2689E-01   9.6006E+00  0.000E+00  0.000E+00  0.000E+00  1.06381E+03  6.256E-01  1.000E+01  3.500E-02  1.209E+00
   1    6    8     5     1    1.0432E+01  2.2686E-01   1.0205E+01  0.000E+00  0.000E+00  0.000E+00  1.05868E+03  6.790E-01  1.542E+01  6.166E-02  1.226E+00
   1    7    7     5     2    1.0205E+01  2.7894E-01   9.9265E+00  0.000E+00  0.000E+00  0.000E+00  1.05417E+03  6.732E-01  1.519E+01  7.594E-02  1.224E+00
   1    8    7     5     3    9.9265E+00  1.9221E-01   9.7343E+00  0.000E+00  0.000E+00  0.000E+00  1.04992E+03  6.676E-01  1.497E+01  5.241E-02  1.223E+00
   1    8    6     5     4    9.7343E+00  1.3577E-01   9.5985E+00  0.000E+00  0.000E+00  0.000E+00  1.04691E+03  6.637E-01  1.482E+01  3.706E-02  1.221E+00
   1    9    6     6     1    9.5985E+00  2.2097E-01   9.3776E+00  0.000E+00  0.000E+00  0.000E+00  1.04341E+03  6.828E-01  1.200E+01  6.000E-02  1.228E+00
   1   10    7     6     2    9.3776E+00  2.2039E-01   9.1572E+00  0.000E+00  0.000E+00  0.000E+00  1.03885E+03  6.732E-01  1.200E+01  6.000E-02  1.224E+00
   1   11    7     6     3    9.1572E+00  2.1981E-01   8.9374E+00  0.000E+00  0.000E+00  0.000E+00  1.03430E+03  6.636E-01  1.200E+01  6.000E-02  1.221E+00
   1   12    7     6     4    8.9374E+00  2.1923E-01   8.7181E+00  0.000E+00  0.000E+00  0.000E+00  1.02974E+03  6.539E-01  1.200E+01  6.000E-02  1.218E+00
   1   13    7     6     5    8.7181E+00 -1.1268E-01   8.8308E+00  0.000E+00  0.000E+00  0.000E+00  1.02656E+03  6.515E-01  1.200E+01  2.400E-01 -1.565E-01
   1   14    9     7     1    1.5000E+02  1.3437E+00   1.4866E+02  0.000E+00  0.000E+00  0.000E+00  1.03987E+03  2.288E+00  5.529E+01  5.593E-01  8.008E-01
   1   13    8     7     2    1.4866E+02  1.8455E+00   1.4681E+02  0.000E+00  0.000E+00  0.000E+00  1.03478E+03  2.279E+00  5.526E+01  6.148E-01  1.001E+00
   1   13    7     7     3    1.4681E+02  1.4852E+00   1.4533E+02  0.000E+00  0.000E+00  0.000E+00  1.02969E+03  2.270E+00  5.522E+01  5.584E-01  8.865E-01
   1   13    6     8     1    1.5416E+02  8.4143E-01   1.5332E+02  0.000E+00  0.000E+00  0.000E+00  1.02472E+03  2.843E+00  4.122E+01  4.201E-01  6.677E-01
   1   13    5     8     2    1.5332E+02  1.1547E-01   1.5320E+02  0.000E+00  0.000E+00  0.000E+00  1.01846E+03  2.840E+00  4.117E+01  4.196E-01  9.173E-02
   1   13    4     8     3    1.5320E+02 -2.6193E+00   1.5582E+02  0.000E+00  0.000E+00  0.000E+00  1.01222E+03  2.848E+00  4.130E+01  4.209E+00 -2.075E-01
   1   13    3     8     4    1.5582E+02 -3.7428E+00   1.5956E+02  0.000E+00  0.000E+00  0.000E+00  1.00600E+03  2.870E+00  4.162E+01  4.241E+00 -2.942E-01
   1   13    2     8     5    1.5956E+02 -2.6400E+00   1.6220E+02  0.000E+00  0.000E+00  0.000E+00  9.99767E+02  2.892E+00  4.193E+01  4.273E+00 -2.060E-01
   1   13    1     8     6    1.6220E+02 -2.0442E+00   1.6425E+02  0.000E+00  0.000E+00  0.000E+00  9.94783E+02  2.908E+00  4.216E+01  2.578E+00 -2.644E-01
   1    8    6     9     1    2.3115E+01  0.0000E+00   2.3115E+01  0.000E+00  0.000E+00  0.000E+00  1.08250E+03  3.746E+00  4.000E+00  0.000E+00  2.249E+00
   1    8    5     9     2    2.3115E+01  0.0000E+00   2.3115E+01  0.000E+00  0.000E+00  0.000E+00  1.08200E+03  3.746E+00  4.000E+00  0.000E+00  2.249E+00





UNSATURATED ZONE PACKAGE VOLUMETRIC BUDGET FOR  TIME STEP    30 STRESS PERIOD   44
  ------------------------------------------------------------------------------



     CUMULATIVE VOLUMES      L**3       RATES FOR THIS TIME STEP      L**3/T
     ------------------                 ------------------------

           IN:                                      IN:
           ---                                      ---
        INFILTRATION =  1923744471.8621          INFILTRATION =          64.2135

          OUT:                                     OUT:
          ----                                     ----
              UZF ET =  1791516160.4104                UZF ET =          64.0980
        UZF RECHARGE =     1884068.5034          UZF RECHARGE =       0.0000E+00

            IN - OUT =   130344242.9483              IN - OUT =           0.1155

          STORAGE:                                 STORAGE:
          --------                                 --------
      STORAGE CHANGE =   130346087.0432        STORAGE CHANGE =           0.1155

 PERCENT DISCREPANCY IS DIFFERENCE BETWEEN IN-OUT MINUS CHANGE IN STORAGE
 DIVIDED BY THE AVERAGE OF IN AND OUT TIMES 100

 PERCENT DISCREPANCY =          -0.00     PERCENT DISCREPANCY =           0.00






1
  VOLUMETRIC BUDGET FOR AGRICULTURAL FIELDS AT TIME STEP   30, STRESS PERIOD  44
  ------------------------------------------------------------------------------

     CUMULATIVE VOLUMES      L**3       RATES FOR THIS TIME STEP      L**3/T
     ------------------                 ------------------------

           IN:                                      IN:
           ---                                      ---
               AG WELLS  =   283475520.0000                 AG WELLS  =          36.6901
      DIVERSION SEGMENTS =  1141731200.0000        DIVERSION SEGMENTS =          23.1155
           GW IRRIGATION =           0.0000             GW IRRIGATION =           0.0000
           SW IRRIGATION =           0.0000             SW IRRIGATION =           0.0000
        SYSTEM LOSSES GW =           0.0000          SYSTEM LOSSES GW =           0.0000
        SYSTEM LOSSES SW =           0.0000          SYSTEM LOSSES SW =           0.0000

                TOTAL IN =  1425206784.0000                  TOTAL IN =          59.8056

          OUT:                                     OUT:
          ----                                     ----
               AG WELLS  =           0.0000                 AG WELLS  =           0.0000
      DIVERSION SEGMENTS =           0.0000        DIVERSION SEGMENTS =           0.0000
           GW IRRIGATION =   283475520.0000             GW IRRIGATION =          36.6901
           SW IRRIGATION =  1141752960.0000             SW IRRIGATION =          23.1159
        SYSTEM LOSSES GW =           0.0000          SYSTEM LOSSES GW =           0.0000
        SYSTEM LOSSES SW =           0.0000          SYSTEM LOSSES SW =           0.0000

               TOTAL OUT =  1425228544.0000                 TOTAL OUT =          59.8060

                IN - OUT =      -21760.0000                  IN - OUT =      -4.6158E-04

     PERCENT DISCREPANCY =          -0.00         PERCENT DISCREPANCY =          -0.00



1
  VOLUMETRIC BUDGET FOR ENTIRE MODEL AT END OF TIME STEP   30, STRESS PERIOD  44
  ------------------------------------------------------------------------------

     CUMULATIVE VOLUMES      L**3       RATES FOR THIS TIME STEP      L**3/T
     ------------------                 ------------------------

           IN:                                      IN:
           ---                                      ---
             STORAGE     =   451139072.0000               STORAGE     =          36.5911
       CONSTANT HEAD     =           0.0000         CONSTANT HEAD     =           0.0000
     HEAD DEP BOUNDS     =    32356794.0000       HEAD DEP BOUNDS     =           0.2863
      STREAM LEAKAGE     =  1354991360.0000        STREAM LEAKAGE     =          11.5468
        UZF RECHARGE     =     1884068.8750          UZF RECHARGE     =           0.0000
               GW ET     =           0.0000                 GW ET     =           0.0000
     SURFACE LEAKAGE     =           0.0000       SURFACE LEAKAGE     =           0.0000
           AG WELLS      =           0.0000             AG WELLS      =           0.0000

                TOTAL IN =  1840371328.0000                  TOTAL IN =          48.4241

          OUT:                                     OUT:
          ----                                     ----
             STORAGE     =   297107712.0000               STORAGE     =           0.2864
       CONSTANT HEAD     =           0.0000         CONSTANT HEAD     =           0.0000
     HEAD DEP BOUNDS     =    32917512.0000       HEAD DEP BOUNDS     =           0.2879
      STREAM LEAKAGE     =  1223003776.0000        STREAM LEAKAGE     =          11.1591
        UZF RECHARGE     =           0.0000          UZF RECHARGE     =           0.0000
               GW ET     =     3813745.5000                 GW ET     =           0.0000
     SURFACE LEAKAGE     =           0.0000       SURFACE LEAKAGE     =           0.0000
           AG WELLS      =   283475520.0000             AG WELLS      =          36.6901

               TOTAL OUT =  1840318208.0000                 TOTAL OUT =          48.4234

                IN - OUT =       53120.0000                  IN - OUT =       7.1716E-04

     PERCENT DISCREPANCY =           0.00         PERCENT DISCREPANCY =           0.00






         TIME SUMMARY AT END OF TIME STEP   30 IN STRESS PERIOD   44
                    SECONDS     MINUTES      HOURS       DAYS        YEARS
                    -----------------------------------------------------------
   TIME STEP LENGTH  87667.      1461.1      24.352      1.0147     2.77799E-03
 STRESS PERIOD TIME 2.63000E+06  43833.      730.56      30.440     8.33397E-02
         TOTAL TIME 1.13175E+08 1.88626E+06  31438.      1309.9      3.5863    
1
1
                            STRESS PERIOD NO.   45, LENGTH =   2630000.    
                            -----------------------------------------------

                              NUMBER OF TIME STEPS =    30

                               MULTIPLIER FOR DELT =     1.000

                            INITIAL TIME STEP SIZE =   87666.66    

 REUSING NON-PARAMETER GHB CELLS FROM LAST STRESS PERIOD

      2 GHB CELLS

 REUSING STREAM SEGMENT DATA FROM LAST STRESS PERIOD



            AREAL INFILTRATION RATE
 READING ON UNIT   19 WITH FORMAT: (10F4.0)            

            1           2           3           4           5           6           7           8           9          10
 ........................................................................................................................
   1   1.2000E-09   0.000       0.000       0.000       0.000       0.000       0.000       0.000       0.000       0.000    
   2   2.1000E-09  2.0000E-09  8.0000E-10  8.5000E-09   0.000       0.000       0.000       0.000       0.000       0.000    
   3   5.0000E-10  1.1000E-09  8.8000E-09  5.5000E-09   0.000       0.000       0.000       0.000       0.000       0.000    
   4   8.5000E-09  1.1000E-09  1.1000E-09  1.1000E-09  2.0000E-09   0.000       0.000       0.000       0.000       0.000    
   5   8.5000E-09  1.1000E-09  1.1000E-09  1.1000E-09  1.1000E-09   0.000       0.000       0.000       0.000       0.000    
   6   8.5000E-09  5.2000E-09  2.1000E-09  1.1000E-09  1.5000E-09   0.000       0.000       0.000       0.000       0.000    
   7   8.5000E-09  5.2000E-09  2.1000E-09  1.2000E-09  2.0000E-09   0.000       0.000       0.000       0.000       0.000    
   8   5.0000E-10  5.2000E-09  2.1000E-09  1.2000E-09  5.0000E-09   0.000       0.000       0.000       0.000       0.000    
   9   5.0000E-10  5.2000E-09  2.1000E-09  1.2000E-09  5.0000E-09   0.000       0.000       0.000       0.000       0.000    
  10   5.0000E-10  5.2000E-09  2.1000E-09  1.2000E-09  5.8000E-09   0.000       0.000       0.000       0.000       0.000    
  11   1.0000E-10  1.1000E-09  1.1000E-09  1.2000E-09  5.0000E-09   0.000       0.000       0.000       0.000       0.000    
  12   1.1000E-09  1.1000E-09  1.1000E-09  1.1000E-09  2.0000E-09   0.000       0.000       0.000       0.000       0.000    
  13   1.1000E-09  2.2000E-09  2.2000E-09  2.1000E-09  1.0000E-09   0.000       0.000       0.000       0.000       0.000    
  14   2.0000E-10  5.5000E-09  5.5000E-09  5.2000E-09  1.0000E-09   0.000       0.000       0.000       0.000       0.000    
  15    0.000      8.8000E-09  8.8000E-09   0.000       0.000       0.000       0.000       0.000       0.000       0.000    

                  ET RATE =  3.250000E-07

 USING ET EXTINCTION DEPTH FROM PREVIOUS STRESS PERIOD. CURRENT PERIOD IS:      45

 USING EXTINCTION WATER CONTENT FROM PREVIOUS STRESS PERIOD. CURRENT PERIOD IS:      45

 USING AIR ENTRY PRESSURE FROM PREVIOUS STRESS PERIOD. CURRENT PERIOD IS:      45

 USING ROOT PRESSURE HEAD FROM PREVIOUS STRESS PERIOD. CURRENT PERIOD IS:      45

 USING ROOT ACTIVITY FROM PREVIOUS STRESS PERIOD. CURRENT PERIOD IS:      45

 PROCESSING AG STRESS PERIOD DATA

 READING AG STRESS PERIOD DATA

 READING IRRIGATION SEGMENT

 READING IRRIGATION WELL

 READING SUPPLEMENTAL WELL

 END PROCESSING AG STRESS PERIOD DATA OPTIONS
 
 SOLVING FOR HEAD 
                                                   Max.-Head-Change                         Max.-Flux-Residual
  Residual-Control   Outer-Iter.   Inner-Iter.     Column Row Layer    Maximum-Head-Change  Column Row Layer    Maximum-Flux-Residual          L2-NORM 
          0                 1           2             4    7     1      -0.6094249664E-01       4    7    1        -0.3201456706E+01      0.6881884348E+01
          0                 2           2             4   13     1      -0.9636536408E-02       4   13    1        -0.5664707779E+00      0.1165603418E+01
          0                 3           2             7   13     1      -0.1705313856E-02       7   13    1        -0.9509731846E-01      0.1389910623E+00
          0                 4           2             7   13     1       0.1160703580E-03       7   13    1         0.6651193735E-02      0.1451857832E-01
          0                 5           1             4    7     1      -0.5368774752E-04       4    7    1        -0.2962458394E-02      0.7244779211E-02

    ------------------------------------------------
       NWT REQUIRED            5 OUTER ITERATIONS 
       AND A TOTAL OF          9 INNER ITERATIONS.
    ------------------------------------------------

 NO OUTPUT CONTROL FOR STRESS PERIOD   45   TIME STEP    1
 
 SOLVING FOR HEAD 
                                                   Max.-Head-Change                         Max.-Flux-Residual
  Residual-Control   Outer-Iter.   Inner-Iter.     Column Row Layer    Maximum-Head-Change  Column Row Layer    Maximum-Flux-Residual          L2-NORM 
          0                 1           2             4    7     1      -0.6024941117E-01       4    7    1        -0.3165090625E+01      0.6816463800E+01
          0                 2           2             4   13     1      -0.9642221388E-02       4   13    1        -0.5668022750E+00      0.1162053283E+01
          0                 3           2             7   13     1      -0.1700906514E-02       7   13    1        -0.9485191142E-01      0.1388943037E+00
          0                 4           2             7   13     1       0.1157634711E-03       7   13    1         0.6633622562E-02      0.1482779747E-01
          0                 5           1             4    7     1      -0.5492512318E-04       4    7    1        -0.3030724401E-02      0.7411909804E-02

    ------------------------------------------------
       NWT REQUIRED            5 OUTER ITERATIONS 
       AND A TOTAL OF          9 INNER ITERATIONS.
    ------------------------------------------------

 NO OUTPUT CONTROL FOR STRESS PERIOD   45   TIME STEP    2
 
 SOLVING FOR HEAD 
                                                   Max.-Head-Change                         Max.-Flux-Residual
  Residual-Control   Outer-Iter.   Inner-Iter.     Column Row Layer    Maximum-Head-Change  Column Row Layer    Maximum-Flux-Residual          L2-NORM 
          0                 1           2             4    7     1      -0.5956289152E-01       4    7    1        -0.3129051501E+01      0.6752641212E+01
          0                 2           2             4   13     1      -0.9647480997E-02       4   13    1        -0.5671088362E+00      0.1158579998E+01
          0                 3           2             7   13     1      -0.1696617319E-02       7   13    1        -0.9461308386E-01      0.1388148979E+00
          0                 4           2             7   13     1       0.1154789625E-03       7   13    1         0.6617334385E-02      0.1514611679E-01
          0                 5           1             4    7     1      -0.5619520855E-04       4    7    1        -0.3100794766E-02      0.7583533193E-02

    ------------------------------------------------
       NWT REQUIRED            5 OUTER ITERATIONS 
       AND A TOTAL OF          9 INNER ITERATIONS.
    ------------------------------------------------

 NO OUTPUT CONTROL FOR STRESS PERIOD   45   TIME STEP    3
 
 SOLVING FOR HEAD 
                                                   Max.-Head-Change                         Max.-Flux-Residual
  Residual-Control   Outer-Iter.   Inner-Iter.     Column Row Layer    Maximum-Head-Change  Column Row Layer    Maximum-Flux-Residual          L2-NORM 
          0                 1           2             4    7     1      -0.4825665352E-01       4    7    1        -0.2538528824E+01      0.5469039745E+01
          0                 2           2             4   13     1      -0.9652353633E-02       4   13    1        -0.5673927247E+00      0.1051656568E+01
          0                 3           2             4    7     1      -0.2815885341E-02       4    7    1        -0.1472206956E+00      0.3662372649E+00
          0                 4           2             4    7     1      -0.1176746430E-02       5    8    1        -0.6237418555E-01      0.1520205400E+00
          0                 5           2             4    7     1      -0.6114836883E-03       4    7    1        -0.3192834916E-01      0.7806624889E-01
          0                 6           2             4    7     1      -0.3034353647E-03       5    8    1        -0.1585122014E-01      0.3881900252E-01
          0                 7           2             4    7     1      -0.1519483306E-03       4    7    1        -0.7933388238E-02      0.1943090066E-01
          0                 8           1             4    7     1      -0.7595110147E-04       4    7    1        -0.3965476423E-02      0.9713310361E-02

    ------------------------------------------------
       NWT REQUIRED            8 OUTER ITERATIONS 
       AND A TOTAL OF         15 INNER ITERATIONS.
    ------------------------------------------------

 NO OUTPUT CONTROL FOR STRESS PERIOD   45   TIME STEP    4
 
 SOLVING FOR HEAD 
                                                   Max.-Head-Change                         Max.-Flux-Residual
  Residual-Control   Outer-Iter.   Inner-Iter.     Column Row Layer    Maximum-Head-Change  Column Row Layer    Maximum-Flux-Residual          L2-NORM 
          0                 1           2             4    7     1      -0.4720568820E-01       4    7    1        -0.2483434400E+01      0.5371763527E+01
          0                 2           2             4   13     1      -0.9656935105E-02       4   13    1        -0.5676595865E+00      0.1063135959E+01
          0                 3           2             4    7     1      -0.2885881265E-02       4    7    1        -0.1508730571E+00      0.3747612903E+00
          0                 4           2             4    7     1      -0.1220052749E-02       5    8    1        -0.6462790997E-01      0.1575422484E+00
          0                 5           2             4    7     1      -0.6323060114E-03       4    7    1        -0.3301543993E-01      0.8073000683E-01
          0                 6           2             4    7     1      -0.3139296105E-03       5    8    1        -0.1639901386E-01      0.4016092752E-01
          0                 7           2             4    7     1      -0.1572008439E-03       4    7    1        -0.8207615223E-02      0.2010261119E-01
          0                 8           1             4    7     1      -0.7856768618E-04       4    7    1        -0.4102085036E-02      0.1004792228E-01

    ------------------------------------------------
       NWT REQUIRED            8 OUTER ITERATIONS 
       AND A TOTAL OF         15 INNER ITERATIONS.
    ------------------------------------------------

 NO OUTPUT CONTROL FOR STRESS PERIOD   45   TIME STEP    5
 
 SOLVING FOR HEAD 
                                                   Max.-Head-Change                         Max.-Flux-Residual
  Residual-Control   Outer-Iter.   Inner-Iter.     Column Row Layer    Maximum-Head-Change  Column Row Layer    Maximum-Flux-Residual          L2-NORM 
          0                 1           2             4    7     1      -0.4616334657E-01       4    7    1        -0.2428778849E+01      0.5276728746E+01
          0                 2           2             4   13     1      -0.9661159569E-02       4   13    1        -0.5679055791E+00      0.1075714461E+01
          0                 3           2             4    7     1      -0.2955761797E-02       4    7    1        -0.1545192623E+00      0.3833021081E+00
          0                 4           2             4    7     1      -0.1263261142E-02       5    8    1        -0.6687608333E-01      0.1630510972E+00
          0                 5           2             4    7     1      -0.6531016607E-03       4    7    1        -0.3410113386E-01      0.8339041678E-01
          0                 6           2             4    7     1      -0.3243991570E-03       5    8    1        -0.1694551240E-01      0.4149968325E-01
          0                 7           2             4    7     1      -0.1620905286E-03       4    7    1        -0.8462897826E-02      0.2072791884E-01
          0                 8           1             4    7     1      -0.8137582130E-04       4    7    1        -0.4248694348E-02      0.1040703195E-01

    ------------------------------------------------
       NWT REQUIRED            8 OUTER ITERATIONS 
       AND A TOTAL OF         15 INNER ITERATIONS.
    ------------------------------------------------

 NO OUTPUT CONTROL FOR STRESS PERIOD   45   TIME STEP    6
 
 SOLVING FOR HEAD 
                                                   Max.-Head-Change                         Max.-Flux-Residual
  Residual-Control   Outer-Iter.   Inner-Iter.     Column Row Layer    Maximum-Head-Change  Column Row Layer    Maximum-Flux-Residual          L2-NORM 
          0                 1           2             4    7     1      -0.4512937877E-01       4    7    1        -0.2374550653E+01      0.5183838469E+01
          0                 2           2             4   13     1      -0.9665117289E-02       4   13    1        -0.5681359493E+00      0.1089346759E+01
          0                 3           2             4    7     1      -0.3025618049E-02       4    7    1        -0.1581640844E+00      0.3918695708E+00
          0                 4           2             4    7     1      -0.1306399027E-02       5    8    1        -0.6912017053E-01      0.1685507770E+00
          0                 5           2             4    7     1      -0.6738313620E-03       4    7    1        -0.3518338062E-01      0.8604245049E-01
          0                 6           2             4    7     1      -0.3348661970E-03       5    8    1        -0.1749187479E-01      0.4283811008E-01
          0                 7           2             4    7     1      -0.1676289146E-03       4    7    1        -0.8752049088E-02      0.2143619029E-01
          0                 8           1             4    7     1      -0.8379944295E-04       4    7    1        -0.4375227424E-02      0.1071696413E-01

    ------------------------------------------------
       NWT REQUIRED            8 OUTER ITERATIONS 
       AND A TOTAL OF         15 INNER ITERATIONS.
    ------------------------------------------------

 NO OUTPUT CONTROL FOR STRESS PERIOD   45   TIME STEP    7
 
 SOLVING FOR HEAD 
                                                   Max.-Head-Change                         Max.-Flux-Residual
  Residual-Control   Outer-Iter.   Inner-Iter.     Column Row Layer    Maximum-Head-Change  Column Row Layer    Maximum-Flux-Residual          L2-NORM 
          0                 1           2             4    7     1      -0.4410382219E-01       4    7    1        -0.2320752785E+01      0.5093062025E+01
          0                 2           2             4   13     1      -0.9668824817E-02       4   13    1        -0.5683517025E+00      0.1103976028E+01
          0                 3           2             4    7     1      -0.3095441256E-02       4    7    1        -0.1618070760E+00      0.4004601730E+00
          0                 4           2             4    7     1      -0.1349458147E-02       5    8    1        -0.7135978709E-01      0.1740401745E+00
          0                 5           2             4    7     1      -0.6945507368E-03       4    7    1        -0.3626508445E-01      0.8869321784E-01
          0                 6           2             4    7     1      -0.3453069029E-03       5    8    1        -0.1803685739E-01      0.4417315767E-01
          0                 7           2             4    7     1      -0.1728320328E-03       4    7    1        -0.9023694982E-02      0.2210157861E-01
          0                 8           1             4    7     1      -0.8640272550E-04       4    7    1        -0.4511140472E-02      0.1104987281E-01

    ------------------------------------------------
       NWT REQUIRED            8 OUTER ITERATIONS 
       AND A TOTAL OF         15 INNER ITERATIONS.
    ------------------------------------------------

 NO OUTPUT CONTROL FOR STRESS PERIOD   45   TIME STEP    8
 
 SOLVING FOR HEAD 
                                                   Max.-Head-Change                         Max.-Flux-Residual
  Residual-Control   Outer-Iter.   Inner-Iter.     Column Row Layer    Maximum-Head-Change  Column Row Layer    Maximum-Flux-Residual          L2-NORM 
          0                 1           2             4    7     1      -0.4308694123E-01       4    7    1        -0.2267400410E+01      0.5004392103E+01
          0                 2           2             4   13     1      -0.9672264364E-02       4   13    1        -0.5685518185E+00      0.1119545157E+01
          0                 3           2             4    7     1      -0.3165222186E-02       4    7    1        -0.1654477688E+00      0.4090691736E+00
          0                 4           2             4    7     1      -0.1392439422E-02       5    8    1        -0.7359503057E-01      0.1795193785E+00
          0                 5           2             4    7     1      -0.7152414261E-03       4    7    1        -0.3734528697E-01      0.9134035661E-01
          0                 6           2             4    7     1      -0.3557139770E-03       5    8    1        -0.1858007971E-01      0.4550389712E-01
          0                 7           2             4    7     1      -0.1780567953E-03       4    7    1        -0.9296470257E-02      0.2276973627E-01
          0                 8           1             4    7     1      -0.8900385146E-04       4    7    1        -0.4646940572E-02      0.1138250480E-01

    ------------------------------------------------
       NWT REQUIRED            8 OUTER ITERATIONS 
       AND A TOTAL OF         15 INNER ITERATIONS.
    ------------------------------------------------

 NO OUTPUT CONTROL FOR STRESS PERIOD   45   TIME STEP    9
 
 SOLVING FOR HEAD 
                                                   Max.-Head-Change                         Max.-Flux-Residual
  Residual-Control   Outer-Iter.   Inner-Iter.     Column Row Layer    Maximum-Head-Change  Column Row Layer    Maximum-Flux-Residual          L2-NORM 
          0                 1           2             4    7     1      -0.4207878520E-01       4    7    1        -0.2214497438E+01      0.4917781629E+01
          0                 2           2             4   13     1      -0.9675512649E-02       4   13    1        -0.5687407507E+00      0.1136006737E+01
          0                 3           2             4    7     1      -0.3234959957E-02       4    7    1        -0.1690861311E+00      0.4176978506E+00
          0                 4           2             4    7     1      -0.1435361203E-02       5    8    1        -0.7582689764E-01      0.1849909229E+00
          0                 5           2             4    7     1      -0.7359107267E-03       4    7    1        -0.3842436935E-01      0.9398480008E-01
          0                 6           2             4    7     1      -0.3661140869E-03       5    8    1        -0.1912293451E-01      0.4683373819E-01
          0                 7           2             4    7     1      -0.1832457377E-03       4    7    1        -0.9567374688E-02      0.2343331174E-01
          0                 8           1             4    7     1      -0.9159943421E-04       4    7    1        -0.4782450944E-02      0.1171442705E-01

    ------------------------------------------------
       NWT REQUIRED            8 OUTER ITERATIONS 
       AND A TOTAL OF         15 INNER ITERATIONS.
    ------------------------------------------------

 NO OUTPUT CONTROL FOR STRESS PERIOD   45   TIME STEP   10
 
 SOLVING FOR HEAD 
                                                   Max.-Head-Change                         Max.-Flux-Residual
  Residual-Control   Outer-Iter.   Inner-Iter.     Column Row Layer    Maximum-Head-Change  Column Row Layer    Maximum-Flux-Residual          L2-NORM 
          0                 1           2             4    7     1      -0.4107941621E-01       4    7    1        -0.2162047617E+01      0.4833219864E+01
          0                 2           2             4   13     1      -0.9678549669E-02       4   13    1        -0.5689173687E+00      0.1153300815E+01
          0                 3           2             4    7     1      -0.3304680303E-02       4    7    1        -0.1727235115E+00      0.4263456196E+00
          0                 4           2             4    7     1      -0.1478220916E-02       5    8    1        -0.7805527436E-01      0.1904543972E+00
          0                 5           2             4    7     1      -0.7565132303E-03       4    7    1        -0.3949996091E-01      0.9662073381E-01
          0                 6           2             4    7     1      -0.3765117736E-03       5    8    1        -0.1966565917E-01      0.4816326253E-01
          0                 7           2             4    7     1      -0.1884349376E-03       4    7    1        -0.9838291886E-02      0.2409691887E-01
          0                 8           1             4    7     1      -0.9419499845E-04       4    7    1        -0.4917960014E-02      0.1204634612E-01

    ------------------------------------------------
       NWT REQUIRED            8 OUTER ITERATIONS 
       AND A TOTAL OF         15 INNER ITERATIONS.
    ------------------------------------------------

 NO OUTPUT CONTROL FOR STRESS PERIOD   45   TIME STEP   11
 
 SOLVING FOR HEAD 
                                                   Max.-Head-Change                         Max.-Flux-Residual
  Residual-Control   Outer-Iter.   Inner-Iter.     Column Row Layer    Maximum-Head-Change  Column Row Layer    Maximum-Flux-Residual          L2-NORM 
          0                 1           2             4    7     1      -0.4008886498E-01       4    7    1        -0.2110053688E+01      0.4750683080E+01
          0                 2           2             4   13     1      -0.9681392799E-02       4   13    1        -0.5690826987E+00      0.1171379666E+01
          0                 3           2             4    7     1      -0.3374373482E-02       4    7    1        -0.1763594128E+00      0.4350094753E+00
          0                 4           2             4    7     1      -0.1520983000E-02       5    8    1        -0.8027836162E-01      0.1959052828E+00
          0                 5           2             4    7     1      -0.7771164224E-03       4    7    1        -0.4057558523E-01      0.9925678318E-01
          0                 6           2             4    7     1      -0.3868911544E-03       5    8    1        -0.2020742497E-01      0.4949043938E-01
          0                 7           2             4    7     1      -0.1936168495E-03       4    7    1        -0.1010882796E-01      0.2475959282E-01
          0                 8           1             4    7     1      -0.9678216609E-04       4    7    1        -0.5053030391E-02      0.1237719054E-01

    ------------------------------------------------
       NWT REQUIRED            8 OUTER ITERATIONS 
       AND A TOTAL OF         15 INNER ITERATIONS.
    ------------------------------------------------

 NO OUTPUT CONTROL FOR STRESS PERIOD   45   TIME STEP   12
 
 SOLVING FOR HEAD 
                                                   Max.-Head-Change                         Max.-Flux-Residual
  Residual-Control   Outer-Iter.   Inner-Iter.     Column Row Layer    Maximum-Head-Change  Column Row Layer    Maximum-Flux-Residual          L2-NORM 
          0                 1           2             4    7     1      -0.3910712750E-01       4    7    1        -0.2058516290E+01      0.4670158220E+01
          0                 2           2             4   13     1      -0.9684068983E-02       4   13    1        -0.5692382920E+00      0.1190195866E+01
          0                 3           2             4    7     1      -0.3444014334E-02       4    7    1        -0.1799925304E+00      0.4436855858E+00
          0                 4           2             4    7     1      -0.1563677368E-02       5    8    1        -0.8249772726E-01      0.2013474422E+00
          0                 5           2             4    7     1      -0.7976899114E-03       4    7    1        -0.4164965575E-01      0.1018890562E+00
          0                 6           2             4    7     1      -0.3972644020E-03       5    8    1        -0.2074886752E-01      0.5081682589E-01
          0                 7           2             4    7     1      -0.1987811233E-03       4    7    1        -0.1037844249E-01      0.2542001172E-01
          0                 8           1             4    7     1      -0.9937110440E-04       4    7    1        -0.5188192909E-02      0.1270906574E-01

    ------------------------------------------------
       NWT REQUIRED            8 OUTER ITERATIONS 
       AND A TOTAL OF         15 INNER ITERATIONS.
    ------------------------------------------------

 NO OUTPUT CONTROL FOR STRESS PERIOD   45   TIME STEP   13
 
 SOLVING FOR HEAD 
                                                   Max.-Head-Change                         Max.-Flux-Residual
  Residual-Control   Outer-Iter.   Inner-Iter.     Column Row Layer    Maximum-Head-Change  Column Row Layer    Maximum-Flux-Residual          L2-NORM 
          0                 1           2             4    7     1      -0.3813420837E-01       4    7    1        -0.2007436401E+01      0.4591620041E+01
          0                 2           2             4   13     1      -0.9686593941E-02       4   13    1        -0.5693850778E+00      0.1209702987E+01
          0                 3           2             4    7     1      -0.3513645826E-02       4    7    1        -0.1836251156E+00      0.4523777996E+00
          0                 4           2             4    7     1      -0.1606317987E-02       5    8    1        -0.8471413729E-01      0.2067827202E+00
          0                 5           2             4    7     1      -0.8182049020E-03       4    7    1        -0.4272066911E-01      0.1045138697E+00
          0                 6           2             4    7     1      -0.4076161283E-03       5    8    1        -0.2128918386E-01      0.5214045487E-01
          0                 7           2             4    7     1      -0.2039384305E-03       4    7    1        -0.1064769267E-01      0.2607953462E-01
          0                 8           1             4    7     1      -0.1019607468E-03       4    7    1        -0.5323391853E-02      0.1303942007E-01
          0                 9           1             4    7     1      -0.5097665217E-04       4    7    1        -0.2661502948E-02      0.6519161227E-02

    ------------------------------------------------
       NWT REQUIRED            9 OUTER ITERATIONS 
       AND A TOTAL OF         16 INNER ITERATIONS.
    ------------------------------------------------

 NO OUTPUT CONTROL FOR STRESS PERIOD   45   TIME STEP   14
 
 SOLVING FOR HEAD 
                                                   Max.-Head-Change                         Max.-Flux-Residual
  Residual-Control   Outer-Iter.   Inner-Iter.     Column Row Layer    Maximum-Head-Change  Column Row Layer    Maximum-Flux-Residual          L2-NORM 
          0                 1           2             4    7     1      -0.3715604192E-01       4    7    1        -0.1956081788E+01      0.4513658613E+01
          0                 2           2             4   13     1      -0.9688977128E-02       4   13    1        -0.5695236208E+00      0.1230453267E+01
          0                 3           2             4    7     1      -0.3585878615E-02       4    7    1        -0.1873934931E+00      0.4614066798E+00
          0                 4           2             4    7     1      -0.1650351660E-02       5    8    1        -0.8700323004E-01      0.2123961226E+00
          0                 5           2             4    7     1      -0.8394391437E-03       4    7    1        -0.4382923205E-01      0.1072306678E+00
          0                 6           2             4    7     1      -0.4182978092E-03       5    6    1        -0.2184672472E-01      0.5350627606E-01
          0                 7           2             4    7     1      -0.2092910814E-03       4    7    1        -0.1092714116E-01      0.2676403963E-01
          0                 8           1             4    7     1      -0.1046313242E-03       4    7    1        -0.5462816147E-02      0.1338092909E-01
          0                 9           1             4    7     1      -0.5231708253E-04       4    7    1        -0.2731483518E-02      0.6690573801E-02

    ------------------------------------------------
       NWT REQUIRED            9 OUTER ITERATIONS 
       AND A TOTAL OF         16 INNER ITERATIONS.
    ------------------------------------------------

 NO OUTPUT CONTROL FOR STRESS PERIOD   45   TIME STEP   15
 
 SOLVING FOR HEAD 
                                                   Max.-Head-Change                         Max.-Flux-Residual
  Residual-Control   Outer-Iter.   Inner-Iter.     Column Row Layer    Maximum-Head-Change  Column Row Layer    Maximum-Flux-Residual          L2-NORM 
          0                 1           2             4    7     1      -0.3618546873E-01       4    7    1        -0.1905122015E+01      0.4437595732E+01
          0                 2           2             4   13     1      -0.9691209334E-02       4   13    1        -0.5696533655E+00      0.1251899567E+01
          0                 3           2             4    7     1      -0.3658301223E-02       4    7    1        -0.1911717501E+00      0.4704748623E+00
          0                 4           2             4    7     1      -0.1694439530E-02       5    8    1        -0.8929504747E-01      0.2180164389E+00
          0                 5           2             4    7     1      -0.8606954219E-03       4    7    1        -0.4493894273E-01      0.1099502960E+00
          0                 6           2             4    7     1      -0.4289955814E-03       5    6    1        -0.2240510715E-01      0.5487415028E-01
          0                 7           2             4    7     1      -0.2146421367E-03       4    7    1        -0.1120650574E-01      0.2744833971E-01
          0                 8           1             4    7     1      -0.1073020686E-03       4    7    1        -0.5602248845E-02      0.1372245970E-01
          0                 9           1             4    7     1      -0.5364836672E-04       4    7    1        -0.2800986420E-02      0.6860816573E-02

    ------------------------------------------------
       NWT REQUIRED            9 OUTER ITERATIONS 
       AND A TOTAL OF         16 INNER ITERATIONS.
    ------------------------------------------------

 NO OUTPUT CONTROL FOR STRESS PERIOD   45   TIME STEP   16
 
 SOLVING FOR HEAD 
                                                   Max.-Head-Change                         Max.-Flux-Residual
  Residual-Control   Outer-Iter.   Inner-Iter.     Column Row Layer    Maximum-Head-Change  Column Row Layer    Maximum-Flux-Residual          L2-NORM 
          0                 1           2             4    7     1      -0.3522323133E-01       4    7    1        -0.1854596358E+01      0.4363512735E+01
          0                 2           2             4   13     1      -0.9693332211E-02       4   13    1        -0.5697767835E+00      0.1273968536E+01
          0                 3           2             4    7     1      -0.3730754396E-02       4    7    1        -0.1949515772E+00      0.4795615856E+00
          0                 4           2             4    7     1      -0.1738515322E-02       5    8    1        -0.9158614390E-01      0.2236352589E+00
          0                 5           2             4    7     1      -0.8819346984E-03       4    7    1        -0.4604776303E-01      0.1126677596E+00
          0                 6           2             4    7     1      -0.4396950811E-03       5    6    1        -0.2296357798E-01      0.5624224112E-01
          0                 7           2             4    7     1      -0.2199930339E-03       4    7    1        -0.1148586144E-01      0.2813261736E-01
          0                 8           1             4    7     1      -0.1099637029E-03       4    7    1        -0.5741205589E-02      0.1406282241E-01
          0                 9           1             4    7     1      -0.5498969824E-04       4    7    1        -0.2871013736E-02      0.7032344007E-02

    ------------------------------------------------
       NWT REQUIRED            9 OUTER ITERATIONS 
       AND A TOTAL OF         16 INNER ITERATIONS.
    ------------------------------------------------

 NO OUTPUT CONTROL FOR STRESS PERIOD   45   TIME STEP   17
 
 SOLVING FOR HEAD 
                                                   Max.-Head-Change                         Max.-Flux-Residual
  Residual-Control   Outer-Iter.   Inner-Iter.     Column Row Layer    Maximum-Head-Change  Column Row Layer    Maximum-Flux-Residual          L2-NORM 
          0                 1           2             4    7     1      -0.3450068944E-01       4    7    1        -0.1816585075E+01      0.4313309122E+01
          0                 2           2             4   13     1      -0.9695340781E-02       4   13    1        -0.5698935489E+00      0.1285826703E+01
          0                 3           2             4    7     1      -0.3759557760E-02       4    7    1        -0.1964524322E+00      0.4832443214E+00
          0                 4           2             4    7     1      -0.1758324150E-02       5    8    1        -0.9261026952E-01      0.2261522494E+00
          0                 5           2             4    7     1      -0.8914171275E-03       4    7    1        -0.4654275639E-01      0.1138817100E+00
          0                 6           2             4    7     1      -0.4445013267E-03       5    6    1        -0.2321437339E-01      0.5685667043E-01
          0                 7           2             4    7     1      -0.2223531216E-03       4    7    1        -0.1160906652E-01      0.2843441485E-01
          0                 8           2             4    7     1      -0.1111708820E-03       4    7    1        -0.5804225063E-02      0.1421718294E-01
          0                 9           1             4    7     1      -0.5557230953E-04       4    7    1        -0.2901428079E-02      0.7106841945E-02

    ------------------------------------------------
       NWT REQUIRED            9 OUTER ITERATIONS 
       AND A TOTAL OF         17 INNER ITERATIONS.
    ------------------------------------------------

 NO OUTPUT CONTROL FOR STRESS PERIOD   45   TIME STEP   18
 
 SOLVING FOR HEAD 
                                                   Max.-Head-Change                         Max.-Flux-Residual
  Residual-Control   Outer-Iter.   Inner-Iter.     Column Row Layer    Maximum-Head-Change  Column Row Layer    Maximum-Flux-Residual          L2-NORM 
          0                 1           2             4    7     1      -0.3396285831E-01       4    7    1        -0.1788217258E+01      0.4280983964E+01
          0                 2           2             4   13     1      -0.9697225379E-02       4   13    1        -0.5700030884E+00      0.1289629147E+01
          0                 3           2             4    7     1      -0.3754650139E-02       4    7    1        -0.1961932280E+00      0.4827508609E+00
          0                 4           2             4    7     1      -0.1759109890E-02       5    8    1        -0.9264118844E-01      0.2262379116E+00
          0                 5           2             4    7     1      -0.8915043096E-03       4    7    1        -0.4654722398E-01      0.1138941639E+00
          0                 6           2             4    7     1      -0.4445480876E-03       5    6    1        -0.2321668590E-01      0.5686243260E-01
          0                 7           2             4    7     1      -0.2223853181E-03       4    7    1        -0.1161073243E-01      0.2843851060E-01
          0                 8           2             4    7     1      -0.1111860978E-03       4    7    1        -0.5805012118E-02      0.1421910931E-01
          0                 9           1             4    7     1      -0.5560740548E-04       4    7    1        -0.2903256738E-02      0.7111321314E-02

    ------------------------------------------------
       NWT REQUIRED            9 OUTER ITERATIONS 
       AND A TOTAL OF         17 INNER ITERATIONS.
    ------------------------------------------------

 NO OUTPUT CONTROL FOR STRESS PERIOD   45   TIME STEP   19
 
 SOLVING FOR HEAD 
                                                   Max.-Head-Change                         Max.-Flux-Residual
  Residual-Control   Outer-Iter.   Inner-Iter.     Column Row Layer    Maximum-Head-Change  Column Row Layer    Maximum-Flux-Residual          L2-NORM 
          0                 1           2             4    7     1      -0.3343307411E-01       4    7    1        -0.1760269959E+01      0.4249555571E+01
          0                 2           2             4   13     1      -0.9699036428E-02       4   13    1        -0.5701084210E+00      0.1293358838E+01
          0                 3           2             4    7     1      -0.3749840303E-02       4    7    1        -0.1959391301E+00      0.4822622659E+00
          0                 4           2             4    7     1      -0.1759885830E-02       5    8    1        -0.9267158459E-01      0.2263215817E+00
          0                 5           2             4    7     1      -0.8915650612E-03       4    7    1        -0.4655031200E-01      0.1139032436E+00
          0                 6           2             4    7     1      -0.4446157518E-03       5    6    1        -0.2322009001E-01      0.5687086829E-01
          0                 7           2             4    7     1      -0.2224336870E-03       4    7    1        -0.1161324285E-01      0.2844467495E-01
          0                 8           2             4    7     1      -0.1111996961E-03       4    7    1        -0.5805714759E-02      0.1422082882E-01
          0                 9           1             4    7     1      -0.5560612967E-04       4    7    1        -0.2903186464E-02      0.7111149343E-02

    ------------------------------------------------
       NWT REQUIRED            9 OUTER ITERATIONS 
       AND A TOTAL OF         17 INNER ITERATIONS.
    ------------------------------------------------

 NO OUTPUT CONTROL FOR STRESS PERIOD   45   TIME STEP   20
 
 SOLVING FOR HEAD 
                                                   Max.-Head-Change                         Max.-Flux-Residual
  Residual-Control   Outer-Iter.   Inner-Iter.     Column Row Layer    Maximum-Head-Change  Column Row Layer    Maximum-Flux-Residual          L2-NORM 
          0                 1           2             4    7     1      -0.3291128883E-01       4    7    1        -0.1732741331E+01      0.4218987086E+01
          0                 2           2             4   13     1      -0.9700757317E-02       4   13    1        -0.5702085081E+00      0.1297016846E+01
          0                 3           2             4    7     1      -0.3745101286E-02       4    7    1        -0.1956887372E+00      0.4817870176E+00
          0                 4           2             4    7     1      -0.1760672933E-02       5    8    1        -0.9270255110E-01      0.2264070096E+00
          0                 5           2             4    7     1      -0.8916338179E-03       4    7    1        -0.4655381842E-01      0.1139133503E+00
          0                 6           2             4    7     1      -0.4446917430E-03       5    6    1        -0.2322392920E-01      0.5688036924E-01
          0                 7           2             4    7     1      -0.2224629547E-03       4    7    1        -0.1161475610E-01      0.2844839679E-01
          0                 8           2             4    7     1      -0.1112152026E-03       4    7    1        -0.5806517097E-02      0.1422279262E-01
          0                 9           1             4    7     1      -0.5561379582E-04       4    7    1        -0.2903583063E-02      0.7112120962E-02

    ------------------------------------------------
       NWT REQUIRED            9 OUTER ITERATIONS 
       AND A TOTAL OF         17 INNER ITERATIONS.
    ------------------------------------------------

 NO OUTPUT CONTROL FOR STRESS PERIOD   45   TIME STEP   21
 
 SOLVING FOR HEAD 
                                                   Max.-Head-Change                         Max.-Flux-Residual
  Residual-Control   Outer-Iter.   Inner-Iter.     Column Row Layer    Maximum-Head-Change  Column Row Layer    Maximum-Flux-Residual          L2-NORM 
          0                 1           2             4    7     1      -0.3239755596E-01       4    7    1        -0.1705634558E+01      0.4189247151E+01
          0                 2           2             4   13     1      -0.9702374575E-02       4   13    1        -0.5703025721E+00      0.1300605707E+01
          0                 3           2             4    7     1      -0.3740444581E-02       4    7    1        -0.1954426535E+00      0.4813227425E+00
          0                 4           2             4    7     1      -0.1761442647E-02       5    8    1        -0.9273263521E-01      0.2264902617E+00
          0                 5           2             4    7     1      -0.8917134358E-03       4    7    1        -0.4655789242E-01      0.1139248463E+00
          0                 6           2             4    7     1      -0.4447483759E-03       5    6    1        -0.2322675805E-01      0.5688739522E-01
          0                 7           2             4    7     1      -0.2224941557E-03       4    7    1        -0.1161637043E-01      0.2845236617E-01
          0                 8           2             4    7     1      -0.1112305146E-03       4    7    1        -0.5807309343E-02      0.1422473168E-01
          0                 9           1             4    7     1      -0.5562148086E-04       4    7    1        -0.2903980681E-02      0.7113095030E-02

    ------------------------------------------------
       NWT REQUIRED            9 OUTER ITERATIONS 
       AND A TOTAL OF         17 INNER ITERATIONS.
    ------------------------------------------------

 NO OUTPUT CONTROL FOR STRESS PERIOD   45   TIME STEP   22
 
 SOLVING FOR HEAD 
                                                   Max.-Head-Change                         Max.-Flux-Residual
  Residual-Control   Outer-Iter.   Inner-Iter.     Column Row Layer    Maximum-Head-Change  Column Row Layer    Maximum-Flux-Residual          L2-NORM 
          0                 1           2             4    7     1      -0.3189165251E-01       4    7    1        -0.1678937949E+01      0.4160319309E+01
          0                 2           2             4   13     1      -0.9703917491E-02       4   13    1        -0.5703923624E+00      0.1304121983E+01
          0                 3           2             4    7     1      -0.3735894903E-02       4    7    1        -0.1952021692E+00      0.4808826027E+00
          0                 4           2             4    7     1      -0.1762183371E-02       5    8    1        -0.9276122000E-01      0.2265699704E+00
          0                 5           2             4    7     1      -0.8917959416E-03       4    7    1        -0.4656211768E-01      0.1139367125E+00
          0                 6           2             4    7     1      -0.4448229810E-03       5    6    1        -0.2323052562E-01      0.5689672031E-01
          0                 7           2             4    7     1      -0.2225235564E-03       4    7    1        -0.1161789086E-01      0.2845610557E-01
          0                 8           2             4    7     1      -0.1112368720E-03       4    7    1        -0.5807634124E-02      0.1422552568E-01
          0                 9           1             4    7     1      -0.5563006042E-04       4    7    1        -0.2904425029E-02      0.7114183650E-02

    ------------------------------------------------
       NWT REQUIRED            9 OUTER ITERATIONS 
       AND A TOTAL OF         17 INNER ITERATIONS.
    ------------------------------------------------

 NO OUTPUT CONTROL FOR STRESS PERIOD   45   TIME STEP   23
 
 SOLVING FOR HEAD 
                                                   Max.-Head-Change                         Max.-Flux-Residual
  Residual-Control   Outer-Iter.   Inner-Iter.     Column Row Layer    Maximum-Head-Change  Column Row Layer    Maximum-Flux-Residual          L2-NORM 
          0                 1           2             4    7     1      -0.3139361569E-01       4    7    1        -0.1652654173E+01      0.4132180290E+01
          0                 2           2             4   13     1      -0.9705402366E-02       4   13    1        -0.5704787672E+00      0.1307581067E+01
          0                 3           2             4    7     1      -0.3731404216E-02       4    7    1        -0.1949647833E+00      0.4804391999E+00
          0                 4           2             4    7     1      -0.1762945572E-02       5    8    1        -0.9279096765E-01      0.2266522806E+00
          0                 5           2             4    7     1      -0.8918762880E-03       4    7    1        -0.4656623079E-01      0.1139482992E+00
          0                 6           2             4    7     1      -0.4448886632E-03       5    6    1        -0.2323382793E-01      0.5690490527E-01
          0                 7           2             4    7     1      -0.2225538468E-03       4    7    1        -0.1161945788E-01      0.2845995901E-01
          0                 8           2             4    7     1      -0.1112705382E-03       4    7    1        -0.5809384765E-02      0.1422981234E-01
          0                 9           1             4    7     1      -0.5562677533E-04       4    7    1        -0.2904249969E-02      0.7113755102E-02

    ------------------------------------------------
       NWT REQUIRED            9 OUTER ITERATIONS 
       AND A TOTAL OF         17 INNER ITERATIONS.
    ------------------------------------------------

 NO OUTPUT CONTROL FOR STRESS PERIOD   45   TIME STEP   24
 
 SOLVING FOR HEAD 
                                                   Max.-Head-Change                         Max.-Flux-Residual
  Residual-Control   Outer-Iter.   Inner-Iter.     Column Row Layer    Maximum-Head-Change  Column Row Layer    Maximum-Flux-Residual          L2-NORM 
          0                 1           2             4    7     1      -0.3090323446E-01       4    7    1        -0.1626772115E+01      0.4104796726E+01
          0                 2           2             4   13     1      -0.9706822532E-02       4   13    1        -0.5705614550E+00      0.1310973363E+01
          0                 3           2             4    7     1      -0.3726989135E-02       4    7    1        -0.1947313629E+00      0.4800050949E+00
          0                 4           2             4    7     1      -0.1763709324E-02       5    8    1        -0.9282083268E-01      0.2267349089E+00
          0                 5           2             4    7     1      -0.8919290691E-03       4    7    1        -0.4656890525E-01      0.1139563570E+00
          0                 6           2             4    7     1      -0.4449753624E-03       5    6    1        -0.2323822838E-01      0.5691577922E-01
          0                 7           2             4    7     1      -0.2225911654E-03       4    7    1        -0.1162139196E-01      0.2846471149E-01
          0                 8           2             4    7     1      -0.1112761012E-03       4    7    1        -0.5809668196E-02      0.1423050499E-01
          0                 9           1             4    7     1      -0.5564456611E-04       4    7    1        -0.2905175301E-02      0.7116021661E-02

    ------------------------------------------------
       NWT REQUIRED            9 OUTER ITERATIONS 
       AND A TOTAL OF         17 INNER ITERATIONS.
    ------------------------------------------------

 NO OUTPUT CONTROL FOR STRESS PERIOD   45   TIME STEP   25
 
 SOLVING FOR HEAD 
                                                   Max.-Head-Change                         Max.-Flux-Residual
  Residual-Control   Outer-Iter.   Inner-Iter.     Column Row Layer    Maximum-Head-Change  Column Row Layer    Maximum-Flux-Residual          L2-NORM 
          0                 1           2             4    7     1      -0.3042052774E-01       4    7    1        -0.1601293156E+01      0.4078145373E+01
          0                 2           2             4   13     1      -0.9708169982E-02       4   13    1        -0.5706399222E+00      0.1314305437E+01
          0                 3           2             4    7     1      -0.3722664461E-02       4    7    1        -0.1945026845E+00      0.4795818076E+00
          0                 4           2             4    7     1      -0.1764445746E-02       5    8    1        -0.9284932462E-01      0.2268140959E+00
          0                 5           2             4    7     1      -0.8920302377E-03       4    7    1        -0.4657410665E-01      0.1139705975E+00
          0                 6           2             4    7     1      -0.4450389514E-03       5    6    1        -0.2324142292E-01      0.5692369890E-01
          0                 7           2             4    7     1      -0.2226125261E-03       4    7    1        -0.1162249301E-01      0.2846742347E-01
          0                 8           2             4    7     1      -0.1113015245E-03       4    7    1        -0.5810988603E-02      0.1423373781E-01
          0                 9           1             4    7     1      -0.5565123694E-04       4    7    1        -0.2905520104E-02      0.7116866330E-02

    ------------------------------------------------
       NWT REQUIRED            9 OUTER ITERATIONS 
       AND A TOTAL OF         17 INNER ITERATIONS.
    ------------------------------------------------

 NO OUTPUT CONTROL FOR STRESS PERIOD   45   TIME STEP   26
 
 SOLVING FOR HEAD 
                                                   Max.-Head-Change                         Max.-Flux-Residual
  Residual-Control   Outer-Iter.   Inner-Iter.     Column Row Layer    Maximum-Head-Change  Column Row Layer    Maximum-Flux-Residual          L2-NORM 
          0                 1           2             4    7     1      -0.2994541347E-01       4    7    1        -0.1576213311E+01      0.4052213643E+01
          0                 2           2             4   13     1      -0.9709470947E-02       4   13    1        -0.5707157534E+00      0.1317575453E+01
          0                 3           2             4    7     1      -0.3718415674E-02       4    7    1        -0.1942779932E+00      0.4791675395E+00
          0                 4           2             4    7     1      -0.1765192823E-02       5    8    1        -0.9287844315E-01      0.2268947135E+00
          0                 5           2             4    7     1      -0.8921029303E-03       4    7    1        -0.4657782195E-01      0.1139811880E+00
          0                 6           2             4    7     1      -0.4451145153E-03       5    6    1        -0.2324524359E-01      0.5693315143E-01
          0                 7           2             4    7     1      -0.2226418196E-03       4    7    1        -0.1162400835E-01      0.2847115012E-01
          0                 8           2             4    7     1      -0.1113078877E-03       4    7    1        -0.5811313909E-02      0.1423453309E-01
          0                 9           1             4    7     1      -0.5565981288E-04       4    7    1        -0.2905964380E-02      0.7117954787E-02

    ------------------------------------------------
       NWT REQUIRED            9 OUTER ITERATIONS 
       AND A TOTAL OF         17 INNER ITERATIONS.
    ------------------------------------------------

 NO OUTPUT CONTROL FOR STRESS PERIOD   45   TIME STEP   27
 
 SOLVING FOR HEAD 
                                                   Max.-Head-Change                         Max.-Flux-Residual
  Residual-Control   Outer-Iter.   Inner-Iter.     Column Row Layer    Maximum-Head-Change  Column Row Layer    Maximum-Flux-Residual          L2-NORM 
          0                 1           2             4    7     1      -0.2947762586E-01       4    7    1        -0.1551518361E+01      0.4026973428E+01
          0                 2           2             4   13     1      -0.9710706562E-02       4   13    1        -0.5707877753E+00      0.1320789919E+01
          0                 3           2             4    7     1      -0.3714237378E-02       4    7    1        -0.1940570038E+00      0.4787614542E+00
          0                 4           2             4    7     1      -0.1765914564E-02       5    8    1        -0.9290630150E-01      0.2269721491E+00
          0                 5           2             4    7     1      -0.8921964115E-03       4    7    1        -0.4658262322E-01      0.1139944307E+00
          0                 6           2             4    7     1      -0.4451788620E-03       5    6    1        -0.2324847941E-01      0.5694117076E-01
          0                 7           2             4    7     1      -0.2226630991E-03       4    7    1        -0.1162510540E-01      0.2847385212E-01
          0                 8           2             4    7     1      -0.1113333160E-03       4    7    1        -0.5812634707E-02      0.1423776687E-01
          0                 9           1             4    7     1      -0.5567561514E-04       4    7    1        -0.2906785992E-02      0.7119967420E-02

    ------------------------------------------------
       NWT REQUIRED            9 OUTER ITERATIONS 
       AND A TOTAL OF         17 INNER ITERATIONS.
    ------------------------------------------------

 NO OUTPUT CONTROL FOR STRESS PERIOD   45   TIME STEP   28
 
 SOLVING FOR HEAD 
                                                   Max.-Head-Change                         Max.-Flux-Residual
  Residual-Control   Outer-Iter.   Inner-Iter.     Column Row Layer    Maximum-Head-Change  Column Row Layer    Maximum-Flux-Residual          L2-NORM 
          0                 1           2             3    7     1      -0.2027567851E-01       6    7    1        -0.1054732814E+01      0.3255871772E+01
          0                 2           2             5    6     1      -0.1394125562E-01       5    8    1        -0.7503459999E+00      0.2046337002E+01
          0                 3           2             4    7     1      -0.5219281902E-02       4    7    1        -0.2726313629E+00      0.6672465206E+00
          0                 4           2             4    7     1      -0.2737489083E-02       5    8    1        -0.1436199913E+00      0.3511688255E+00
          0                 5           2             4    7     1      -0.1356135540E-02       4    7    1        -0.7080445595E-01      0.1733254666E+00
          0                 6           2             4    7     1      -0.6793926065E-03       5    6    1        -0.3547598405E-01      0.8689295072E-01
          0                 7           2             4    7     1      -0.3395729532E-03       4    7    1        -0.1772886811E-01      0.4342462455E-01
          0                 8           2             4    7     1      -0.1697851124E-03       4    7    1        -0.8864352772E-02      0.2171274479E-01
          0                 9           1             4    7     1      -0.8490182663E-04       4    7    1        -0.4432661339E-02      0.1085749724E-01

    ------------------------------------------------
       NWT REQUIRED            9 OUTER ITERATIONS 
       AND A TOTAL OF         17 INNER ITERATIONS.
    ------------------------------------------------

 NO OUTPUT CONTROL FOR STRESS PERIOD   45   TIME STEP   29
 
 SOLVING FOR HEAD 
                                                   Max.-Head-Change                         Max.-Flux-Residual
  Residual-Control   Outer-Iter.   Inner-Iter.     Column Row Layer    Maximum-Head-Change  Column Row Layer    Maximum-Flux-Residual          L2-NORM 
          0                 1           2             3    7     1      -0.2039044631E-01       6    7    1        -0.1054234781E+01      0.3242078668E+01
          0                 2           2             5    6     1      -0.1400861391E-01       5    8    1        -0.7539261554E+00      0.2054894777E+01
          0                 3           2             4    7     1      -0.5225332785E-02       4    7    1        -0.2729443920E+00      0.6681288170E+00
          0                 4           2             4    7     1      -0.2744239960E-02       5    8    1        -0.1439626889E+00      0.3520173485E+00
          0                 5           2             4    7     1      -0.1359161268E-02       4    7    1        -0.7096232079E-01      0.1737136096E+00
          0                 6           2             4    7     1      -0.6809267420E-03       5    6    1        -0.3555594093E-01      0.8708889954E-01
          0                 7           2             4    7     1      -0.3403333276E-03       4    7    1        -0.1776854590E-01      0.4352182730E-01
          0                 8           2             4    7     1      -0.1701659684E-03       4    7    1        -0.8884226739E-02      0.2176142386E-01
          0                 9           1             4    7     1      -0.8509218827E-04       4    7    1        -0.4442594837E-02      0.1088182954E-01

    ------------------------------------------------
       NWT REQUIRED            9 OUTER ITERATIONS 
       AND A TOTAL OF         17 INNER ITERATIONS.
    ------------------------------------------------

 NO OUTPUT CONTROL FOR STRESS PERIOD   45   TIME STEP   30



 STREAM LISTING     PERIOD     45   STEP       30

 LAYER ROW COL. STREAM  RCH.  FLOW INTO     FLOW TO   FLOW OUT OF   OVRLND.     DIRECT     STREAM       STREAM     STREAM     STREAM   STREAMBED  STREAMBED
                SEG.NO.  NO.  STRM. RCH.    AQUIFER    STRM. RCH.    RUNOFF     PRECIP       ET          HEAD       DEPTH      WIDTH   CONDCTNC.   GRADIENT

   1    1    1     1     1    2.7749E+01  2.5751E-01   2.7492E+01  0.000E+00  0.000E+00  0.000E+00  1.09427E+03  1.218E+00  1.357E+01  6.105E-02  1.406E+00
   1    2    2     1     2    2.7492E+01  3.9832E-01   2.7093E+01  0.000E+00  0.000E+00  0.000E+00  1.08927E+03  1.213E+00  1.351E+01  9.454E-02  1.404E+00
   1    3    3     1     3    2.7093E+01  3.3923E-01   2.6754E+01  0.000E+00  0.000E+00  0.000E+00  1.08363E+03  1.208E+00  1.344E+01  8.062E-02  1.403E+00
   1    3    4     1     4    2.6754E+01  3.1200E-01   2.6442E+01  0.000E+00  0.000E+00  0.000E+00  1.07861E+03  1.203E+00  1.337E+01  7.422E-02  1.401E+00
   1    4    5     2     1    2.4442E+01  3.2655E-01   2.4116E+01  0.000E+00  0.000E+00  0.000E+00  1.07312E+03  1.187E+00  1.200E+01  7.800E-02  1.396E+00
   1    5    6     2     2    2.4116E+01  2.5068E-01   2.3865E+01  0.000E+00  0.000E+00  0.000E+00  1.06769E+03  1.178E+00  1.200E+01  6.000E-02  1.393E+00
   1    6    6     2     3    2.3865E+01  2.5024E-01   2.3615E+01  0.000E+00  0.000E+00  0.000E+00  1.06296E+03  1.171E+00  1.200E+01  6.000E-02  1.390E+00
   1    7    6     2     4    2.3615E+01  2.4979E-01   2.3365E+01  0.000E+00  0.000E+00  0.000E+00  1.05824E+03  1.163E+00  1.200E+01  6.000E-02  1.388E+00
   1    8    6     2     5    2.3365E+01  2.4935E-01   2.3115E+01  0.000E+00  0.000E+00  0.000E+00  1.05351E+03  1.156E+00  1.200E+01  6.000E-02  1.385E+00
   1    3    5     3     1    2.0000E+00  2.8252E-01   1.7175E+00  0.000E+00  0.000E+00  0.000E+00  1.07555E+03  1.909E+00  9.636E+00  7.227E-02  1.955E+00
   1    3    6     3     2    1.7175E+00  2.4905E-01   1.4684E+00  0.000E+00  0.000E+00  0.000E+00  1.07264E+03  1.727E+00  8.909E+00  6.682E-02  1.864E+00
   1    3    7     3     3    1.4684E+00  1.9718E-01   1.2712E+00  0.000E+00  0.000E+00  0.000E+00  1.06987E+03  1.555E+00  8.218E+00  5.547E-02  1.777E+00
   1    4    8     3     4    1.2712E+00  2.2567E-01   1.0456E+00  0.000E+00  0.000E+00  0.000E+00  1.06682E+03  1.364E+00  7.455E+00  6.709E-02  1.682E+00
   1    5    8     3     5    1.0456E+00  1.5790E-01   8.8768E-01  0.000E+00  0.000E+00  0.000E+00  1.06362E+03  1.164E+00  6.655E+00  4.991E-02  1.582E+00
   1    6    8     3     6    8.8768E-01  5.5980E-02   8.3170E-01  0.000E+00  0.000E+00  0.000E+00  1.06158E+03  1.036E+00  6.145E+00  1.844E-02  1.518E+00
   1    5   10     4     1    1.0000E+01  9.0919E-02   9.9091E+00  0.000E+00  0.000E+00  0.000E+00  1.07836E+03  6.368E-01  1.000E+01  2.500E-02  1.212E+00
   1    5    9     4     2    9.9091E+00  1.8158E-01   9.7275E+00  0.000E+00  0.000E+00  0.000E+00  1.07154E+03  6.315E-01  1.000E+01  5.000E-02  1.211E+00
   1    6    8     4     3    9.7275E+00  1.2689E-01   9.6006E+00  0.000E+00  0.000E+00  0.000E+00  1.06381E+03  6.256E-01  1.000E+01  3.500E-02  1.209E+00
   1    6    8     5     1    1.0432E+01  2.2686E-01   1.0205E+01  0.000E+00  0.000E+00  0.000E+00  1.05868E+03  6.790E-01  1.542E+01  6.166E-02  1.226E+00
   1    7    7     5     2    1.0205E+01  2.7894E-01   9.9265E+00  0.000E+00  0.000E+00  0.000E+00  1.05417E+03  6.732E-01  1.519E+01  7.594E-02  1.224E+00
   1    8    7     5     3    9.9265E+00  1.9221E-01   9.7343E+00  0.000E+00  0.000E+00  0.000E+00  1.04992E+03  6.676E-01  1.497E+01  5.241E-02  1.223E+00
   1    8    6     5     4    9.7343E+00  1.3577E-01   9.5985E+00  0.000E+00  0.000E+00  0.000E+00  1.04691E+03  6.637E-01  1.482E+01  3.706E-02  1.221E+00
   1    9    6     6     1    9.5985E+00  2.2097E-01   9.3776E+00  0.000E+00  0.000E+00  0.000E+00  1.04341E+03  6.828E-01  1.200E+01  6.000E-02  1.228E+00
   1   10    7     6     2    9.3776E+00  2.2039E-01   9.1572E+00  0.000E+00  0.000E+00  0.000E+00  1.03885E+03  6.732E-01  1.200E+01  6.000E-02  1.224E+00
   1   11    7     6     3    9.1572E+00  2.1981E-01   8.9374E+00  0.000E+00  0.000E+00  0.000E+00  1.03430E+03  6.636E-01  1.200E+01  6.000E-02  1.221E+00
   1   12    7     6     4    8.9374E+00  2.1923E-01   8.7181E+00  0.000E+00  0.000E+00  0.000E+00  1.02974E+03  6.539E-01  1.200E+01  6.000E-02  1.218E+00
   1   13    7     6     5    8.7181E+00 -1.0709E-01   8.8252E+00  0.000E+00  0.000E+00  0.000E+00  1.02656E+03  6.514E-01  1.200E+01  2.400E-01 -1.487E-01
   1   14    9     7     1    1.5000E+02  1.3439E+00   1.4866E+02  0.000E+00  0.000E+00  0.000E+00  1.03987E+03  2.288E+00  5.529E+01  5.593E-01  8.009E-01
   1   13    8     7     2    1.4866E+02  1.8502E+00   1.4681E+02  0.000E+00  0.000E+00  0.000E+00  1.03478E+03  2.279E+00  5.526E+01  6.148E-01  1.003E+00
   1   13    7     7     3    1.4681E+02  1.4983E+00   1.4531E+02  0.000E+00  0.000E+00  0.000E+00  1.02969E+03  2.270E+00  5.522E+01  5.584E-01  8.943E-01
   1   13    6     8     1    1.5413E+02  8.5290E-01   1.5328E+02  0.000E+00  0.000E+00  0.000E+00  1.02472E+03  2.843E+00  4.122E+01  4.200E-01  6.768E-01
   1   13    5     8     2    1.5328E+02  1.2576E-01   1.5315E+02  0.000E+00  0.000E+00  0.000E+00  1.01846E+03  2.839E+00  4.117E+01  4.195E-01  9.992E-02
   1   13    4     8     3    1.5315E+02 -2.5779E+00   1.5573E+02  0.000E+00  0.000E+00  0.000E+00  1.01222E+03  2.848E+00  4.129E+01  4.208E+00 -2.042E-01
   1   13    3     8     4    1.5573E+02 -3.7058E+00   1.5944E+02  0.000E+00  0.000E+00  0.000E+00  1.00599E+03  2.869E+00  4.161E+01  4.240E+00 -2.913E-01
   1   13    2     8     5    1.5944E+02 -2.5993E+00   1.6204E+02  0.000E+00  0.000E+00  0.000E+00  9.99766E+02  2.891E+00  4.192E+01  4.271E+00 -2.028E-01
   1   13    1     8     6    1.6204E+02 -1.9972E+00   1.6403E+02  0.000E+00  0.000E+00  0.000E+00  9.94781E+02  2.906E+00  4.214E+01  2.577E+00 -2.584E-01
   1    8    6     9     1    2.3115E+01  0.0000E+00   2.3115E+01  0.000E+00  0.000E+00  0.000E+00  1.08250E+03  3.746E+00  4.000E+00  0.000E+00  2.249E+00
   1    8    5     9     2    2.3115E+01  0.0000E+00   2.3115E+01  0.000E+00  0.000E+00  0.000E+00  1.08200E+03  3.746E+00  4.000E+00  0.000E+00  2.249E+00





UNSATURATED ZONE PACKAGE VOLUMETRIC BUDGET FOR  TIME STEP    30 STRESS PERIOD   45
  ------------------------------------------------------------------------------



     CUMULATIVE VOLUMES      L**3       RATES FOR THIS TIME STEP      L**3/T
     ------------------                 ------------------------

           IN:                                      IN:
           ---                                      ---
        INFILTRATION =  2063021680.3171          INFILTRATION =          52.9505

          OUT:                                     OUT:
          ----                                     ----
              UZF ET =  1930497998.1155                UZF ET =          52.8415
        UZF RECHARGE =     1884068.5034          UZF RECHARGE =       0.0000E+00

            IN - OUT =   130639613.6983              IN - OUT =           0.1090

          STORAGE:                                 STORAGE:
          --------                                 --------
      STORAGE CHANGE =   130641454.9093        STORAGE CHANGE =           0.1090

 PERCENT DISCREPANCY IS DIFFERENCE BETWEEN IN-OUT MINUS CHANGE IN STORAGE
 DIVIDED BY THE AVERAGE OF IN AND OUT TIMES 100

 PERCENT DISCREPANCY =          -0.00     PERCENT DISCREPANCY =           0.00






1
  VOLUMETRIC BUDGET FOR AGRICULTURAL FIELDS AT TIME STEP   30, STRESS PERIOD  45
  ------------------------------------------------------------------------------

     CUMULATIVE VOLUMES      L**3       RATES FOR THIS TIME STEP      L**3/T
     ------------------                 ------------------------

           IN:                                      IN:
           ---                                      ---
               AG WELLS  =   350366144.0000                 AG WELLS  =          25.4271
      DIVERSION SEGMENTS =  1202526080.0000        DIVERSION SEGMENTS =          23.1155
           GW IRRIGATION =           0.0000             GW IRRIGATION =           0.0000
           SW IRRIGATION =           0.0000             SW IRRIGATION =           0.0000
        SYSTEM LOSSES GW =           0.0000          SYSTEM LOSSES GW =           0.0000
        SYSTEM LOSSES SW =           0.0000          SYSTEM LOSSES SW =           0.0000

                TOTAL IN =  1552892160.0000                  TOTAL IN =          48.5426

          OUT:                                     OUT:
          ----                                     ----
               AG WELLS  =           0.0000                 AG WELLS  =           0.0000
      DIVERSION SEGMENTS =           0.0000        DIVERSION SEGMENTS =           0.0000
           GW IRRIGATION =   350366144.0000             GW IRRIGATION =          25.4271
           SW IRRIGATION =  1202547840.0000             SW IRRIGATION =          23.1159
        SYSTEM LOSSES GW =           0.0000          SYSTEM LOSSES GW =           0.0000
        SYSTEM LOSSES SW =           0.0000          SYSTEM LOSSES SW =           0.0000

               TOTAL OUT =  1552913920.0000                 TOTAL OUT =          48.5430

                IN - OUT =      -21760.0000                  IN - OUT =      -4.6158E-04

     PERCENT DISCREPANCY =          -0.00         PERCENT DISCREPANCY =          -0.00



1
  VOLUMETRIC BUDGET FOR ENTIRE MODEL AT END OF TIME STEP   30, STRESS PERIOD  45
  ------------------------------------------------------------------------------

     CUMULATIVE VOLUMES      L**3       RATES FOR THIS TIME STEP      L**3/T
     ------------------                 ------------------------

           IN:                                      IN:
           ---                                      ---
             STORAGE     =   517295168.0000               STORAGE     =          25.0462
       CONSTANT HEAD     =           0.0000         CONSTANT HEAD     =           0.0000
     HEAD DEP BOUNDS     =    33109762.0000       HEAD DEP BOUNDS     =           0.2863
      STREAM LEAKAGE     =  1385418112.0000        STREAM LEAKAGE     =          11.5866
        UZF RECHARGE     =     1884068.8750          UZF RECHARGE     =           0.0000
               GW ET     =           0.0000                 GW ET     =           0.0000
     SURFACE LEAKAGE     =           0.0000       SURFACE LEAKAGE     =           0.0000
           AG WELLS      =           0.0000             AG WELLS      =           0.0000

                TOTAL IN =  1937707136.0000                  TOTAL IN =          36.9191

          OUT:                                     OUT:
          ----                                     ----
             STORAGE     =   297728672.0000               STORAGE     =           0.2149
       CONSTANT HEAD     =           0.0000         CONSTANT HEAD     =           0.0000
     HEAD DEP BOUNDS     =    33673408.0000       HEAD DEP BOUNDS     =           0.2871
      STREAM LEAKAGE     =  1252065792.0000        STREAM LEAKAGE     =          10.9874
        UZF RECHARGE     =           0.0000          UZF RECHARGE     =           0.0000
               GW ET     =     3813745.5000                 GW ET     =           0.0000
     SURFACE LEAKAGE     =           0.0000       SURFACE LEAKAGE     =           0.0000
           AG WELLS      =   350366144.0000             AG WELLS      =          25.4271

               TOTAL OUT =  1937647872.0000                 TOTAL OUT =          36.9165

                IN - OUT =       59264.0000                  IN - OUT =       2.6436E-03

     PERCENT DISCREPANCY =           0.00         PERCENT DISCREPANCY =           0.01






         TIME SUMMARY AT END OF TIME STEP   30 IN STRESS PERIOD   45
                    SECONDS     MINUTES      HOURS       DAYS        YEARS
                    -----------------------------------------------------------
   TIME STEP LENGTH  87667.      1461.1      24.352      1.0147     2.77799E-03
 STRESS PERIOD TIME 2.63000E+06  43833.      730.56      30.440     8.33397E-02
         TOTAL TIME 1.15805E+08 1.93009E+06  32168.      1340.3      3.6696    
1
1
                            STRESS PERIOD NO.   46, LENGTH =   2630000.    
                            -----------------------------------------------

                              NUMBER OF TIME STEPS =    30

                               MULTIPLIER FOR DELT =     1.000

                            INITIAL TIME STEP SIZE =   87666.66    

 REUSING NON-PARAMETER GHB CELLS FROM LAST STRESS PERIOD

      2 GHB CELLS

 REUSING STREAM SEGMENT DATA FROM LAST STRESS PERIOD



            AREAL INFILTRATION RATE
 READING ON UNIT   19 WITH FORMAT: (10F4.0)            

            1           2           3           4           5           6           7           8           9          10
 ........................................................................................................................
   1   1.2000E-09   0.000       0.000       0.000       0.000       0.000       0.000       0.000       0.000       0.000    
   2   2.1000E-09  2.0000E-09  8.0000E-10  8.5000E-09   0.000       0.000       0.000       0.000       0.000       0.000    
   3   5.0000E-10  1.1000E-09  8.8000E-09  5.5000E-09   0.000       0.000       0.000       0.000       0.000       0.000    
   4   8.5000E-09  1.1000E-09  1.1000E-09  1.1000E-09  2.0000E-09   0.000       0.000       0.000       0.000       0.000    
   5   8.5000E-09  1.1000E-09  1.1000E-09  1.1000E-09  1.1000E-09   0.000       0.000       0.000       0.000       0.000    
   6   8.5000E-09  5.2000E-09  2.1000E-09  1.1000E-09  1.5000E-09   0.000       0.000       0.000       0.000       0.000    
   7   8.5000E-09  5.2000E-09  2.1000E-09  1.2000E-09  2.0000E-09   0.000       0.000       0.000       0.000       0.000    
   8   5.0000E-10  5.2000E-09  2.1000E-09  1.2000E-09  5.0000E-09   0.000       0.000       0.000       0.000       0.000    
   9   5.0000E-10  5.2000E-09  2.1000E-09  1.2000E-09  5.0000E-09   0.000       0.000       0.000       0.000       0.000    
  10   5.0000E-10  5.2000E-09  2.1000E-09  1.2000E-09  5.8000E-09   0.000       0.000       0.000       0.000       0.000    
  11   1.0000E-10  1.1000E-09  1.1000E-09  1.2000E-09  5.0000E-09   0.000       0.000       0.000       0.000       0.000    
  12   1.1000E-09  1.1000E-09  1.1000E-09  1.1000E-09  2.0000E-09   0.000       0.000       0.000       0.000       0.000    
  13   1.1000E-09  2.2000E-09  2.2000E-09  2.1000E-09  1.0000E-09   0.000       0.000       0.000       0.000       0.000    
  14   2.0000E-10  5.5000E-09  5.5000E-09  5.2000E-09  1.0000E-09   0.000       0.000       0.000       0.000       0.000    
  15    0.000      8.8000E-09  8.8000E-09   0.000       0.000       0.000       0.000       0.000       0.000       0.000    

                  ET RATE =  7.500000E-08

 USING ET EXTINCTION DEPTH FROM PREVIOUS STRESS PERIOD. CURRENT PERIOD IS:      46

 USING EXTINCTION WATER CONTENT FROM PREVIOUS STRESS PERIOD. CURRENT PERIOD IS:      46

 USING AIR ENTRY PRESSURE FROM PREVIOUS STRESS PERIOD. CURRENT PERIOD IS:      46

 USING ROOT PRESSURE HEAD FROM PREVIOUS STRESS PERIOD. CURRENT PERIOD IS:      46

 USING ROOT ACTIVITY FROM PREVIOUS STRESS PERIOD. CURRENT PERIOD IS:      46

 PROCESSING AG STRESS PERIOD DATA

 READING AG STRESS PERIOD DATA

 READING IRRIGATION SEGMENT

 READING IRRIGATION WELL

 READING SUPPLEMENTAL WELL

 END PROCESSING AG STRESS PERIOD DATA OPTIONS
 
 SOLVING FOR HEAD 
                                                   Max.-Head-Change                         Max.-Flux-Residual
  Residual-Control   Outer-Iter.   Inner-Iter.     Column Row Layer    Maximum-Head-Change  Column Row Layer    Maximum-Flux-Residual          L2-NORM 
          0                 1           2             5    8     1       0.4758711099E-01       5    8    1         0.2586091399E+01      0.6386948197E+01
          0                 2           2             5    8     1      -0.4628988850E-02       5    8    1        -0.2586068569E+00      0.7401637501E+00
          0                 3           2             4   13     1      -0.5741292188E-03       4   13    1        -0.3380066638E-01      0.7454041531E-01
          0                 4           2             4   13     1      -0.2544718870E-03       4   13    1        -0.1498409936E-01      0.2616576837E-01
          0                 5           2             4   13     1      -0.1298310491E-03       4   13    1        -0.7644088299E-02      0.1334006802E-01
          0                 6           1             4   13     1      -0.6490604905E-04       4   13    1        -0.3821358929E-02      0.6666576749E-02

    ------------------------------------------------
       NWT REQUIRED            6 OUTER ITERATIONS 
       AND A TOTAL OF         11 INNER ITERATIONS.
    ------------------------------------------------

 NO OUTPUT CONTROL FOR STRESS PERIOD   46   TIME STEP    1
 
 SOLVING FOR HEAD 
                                                   Max.-Head-Change                         Max.-Flux-Residual
  Residual-Control   Outer-Iter.   Inner-Iter.     Column Row Layer    Maximum-Head-Change  Column Row Layer    Maximum-Flux-Residual          L2-NORM 
          0                 1           2             5    6     1       0.4555342190E-01       5    8    1         0.2472931589E+01      0.6178513200E+01
          0                 2           2             5    6     1      -0.4431074409E-02       5    8    1        -0.2472910554E+00      0.7204629588E+00
          0                 3           2             4   13     1      -0.5829410076E-03       4   13    1        -0.3432056662E-01      0.7437610636E-01
          0                 4           2             4   13     1      -0.2521345363E-03       4   13    1        -0.1484635300E-01      0.2593402336E-01
          0                 5           2             4   13     1      -0.1290079595E-03       4   13    1        -0.7595624584E-02      0.1325620971E-01
          0                 6           1             4   13     1      -0.6441999580E-04       4   13    1        -0.3792738862E-02      0.6617829268E-02

    ------------------------------------------------
       NWT REQUIRED            6 OUTER ITERATIONS 
       AND A TOTAL OF         11 INNER ITERATIONS.
    ------------------------------------------------

 NO OUTPUT CONTROL FOR STRESS PERIOD   46   TIME STEP    2
 
 SOLVING FOR HEAD 
                                                   Max.-Head-Change                         Max.-Flux-Residual
  Residual-Control   Outer-Iter.   Inner-Iter.     Column Row Layer    Maximum-Head-Change  Column Row Layer    Maximum-Flux-Residual          L2-NORM 
          0                 1           2             5    6     1       0.4373749970E-01       5    6    1         0.2367507641E+01      0.5960407559E+01
          0                 2           2             5    6     1      -0.4254436592E-02       5    6    1        -0.2367487251E+00      0.6849015312E+00
          0                 3           2             7   13     1      -0.7031819658E-03       7   13    1        -0.3906572051E-01      0.8308125690E-01
          0                 4           2             4   13     1      -0.2449184565E-03       4   13    1        -0.1440678831E-01      0.2546536439E-01
          0                 5           2             4   13     1      -0.1257098317E-03       4   13    1        -0.7393962604E-02      0.1326260460E-01
          0                 6           1             4   13     1      -0.6271796964E-04       4   13    1        -0.3688788968E-02      0.6603380653E-02

    ------------------------------------------------
       NWT REQUIRED            6 OUTER ITERATIONS 
       AND A TOTAL OF         11 INNER ITERATIONS.
    ------------------------------------------------

 NO OUTPUT CONTROL FOR STRESS PERIOD   46   TIME STEP    3
 
 SOLVING FOR HEAD 
                                                   Max.-Head-Change                         Max.-Flux-Residual
  Residual-Control   Outer-Iter.   Inner-Iter.     Column Row Layer    Maximum-Head-Change  Column Row Layer    Maximum-Flux-Residual          L2-NORM 
          0                 1           2             5    6     1       0.4202475291E-01       5    6    1         0.2273139217E+01      0.5773594583E+01
          0                 2           2             5    6     1      -0.4087835113E-02       5    6    1        -0.2273120257E+00      0.6642515692E+00
          0                 3           2             7   13     1      -0.9886495136E-03       7   13    1        -0.5496396607E-01      0.9111117215E-01
          0                 4           2             4   13     1      -0.2422305052E-03       4   13    1        -0.1424456187E-01      0.2509105345E-01
          0                 5           2             4   13     1      -0.1244620464E-03       4   13    1        -0.7318451287E-02      0.1319626337E-01
          0                 6           1             4   13     1      -0.6210110733E-04       4   13    1        -0.3651463960E-02      0.6558907724E-02

    ------------------------------------------------
       NWT REQUIRED            6 OUTER ITERATIONS 
       AND A TOTAL OF         11 INNER ITERATIONS.
    ------------------------------------------------

 NO OUTPUT CONTROL FOR STRESS PERIOD   46   TIME STEP    4
 
 SOLVING FOR HEAD 
                                                   Max.-Head-Change                         Max.-Flux-Residual
  Residual-Control   Outer-Iter.   Inner-Iter.     Column Row Layer    Maximum-Head-Change  Column Row Layer    Maximum-Flux-Residual          L2-NORM 
          0                 1           2             5    6     1       0.4040904392E-01       5    6    1         0.2184120304E+01      0.5600182567E+01
          0                 2           2             5    6     1      -0.3930672738E-02       5    6    1        -0.2184102756E+00      0.6490716644E+00
          0                 3           2             7   13     1      -0.9896092620E-03       7   13    1        -0.5501686647E-01      0.9085233835E-01
          0                 4           2             4   13     1      -0.2405044368E-03       4   13    1        -0.1414303386E-01      0.2490978957E-01
          0                 5           2             4   13     1      -0.1238364906E-03       4   13    1        -0.7281673308E-02      0.1312912698E-01
          0                 6           1             4   13     1      -0.6175747715E-04       4   13    1        -0.3631259629E-02      0.6522003503E-02

    ------------------------------------------------
       NWT REQUIRED            6 OUTER ITERATIONS 
       AND A TOTAL OF         11 INNER ITERATIONS.
    ------------------------------------------------

 NO OUTPUT CONTROL FOR STRESS PERIOD   46   TIME STEP    5
 
 SOLVING FOR HEAD 
                                                   Max.-Head-Change                         Max.-Flux-Residual
  Residual-Control   Outer-Iter.   Inner-Iter.     Column Row Layer    Maximum-Head-Change  Column Row Layer    Maximum-Flux-Residual          L2-NORM 
          0                 1           2             5    6     1       0.3888395548E-01       5    6    1         0.2100149186E+01      0.5435969350E+01
          0                 2           2             5    6     1      -0.3782325104E-02       5    6    1        -0.2100132937E+00      0.6347961720E+00
          0                 3           2             7   13     1      -0.9904882241E-03       7   13    1        -0.5506525944E-01      0.9063685098E-01
          0                 4           2             4   13     1      -0.2388596011E-03       4   13    1        -0.1404629446E-01      0.2473571312E-01
          0                 5           2             4   13     1      -0.1232343143E-03       4   13    1        -0.7246269291E-02      0.1306403977E-01
          0                 6           1             4   13     1      -0.6142360909E-04       4   13    1        -0.3611615178E-02      0.6488266582E-02

    ------------------------------------------------
       NWT REQUIRED            6 OUTER ITERATIONS 
       AND A TOTAL OF         11 INNER ITERATIONS.
    ------------------------------------------------

 NO OUTPUT CONTROL FOR STRESS PERIOD   46   TIME STEP    6
 
 SOLVING FOR HEAD 
                                                   Max.-Head-Change                         Max.-Flux-Residual
  Residual-Control   Outer-Iter.   Inner-Iter.     Column Row Layer    Maximum-Head-Change  Column Row Layer    Maximum-Flux-Residual          L2-NORM 
          0                 1           2             5    7     1       0.3744447113E-01       5    6    1         0.2020876645E+01      0.5280310480E+01
          0                 2           2             5    7     1      -0.3642316707E-02       5    6    1        -0.2020861589E+00      0.6213600515E+00
          0                 3           2             7   13     1      -0.9912884747E-03       7   13    1        -0.5510925434E-01      0.9045865679E-01
          0                 4           2             4   13     1      -0.2372886361E-03       4   13    1        -0.1395390880E-01      0.2456844224E-01
          0                 5           2             4   13     1      -0.1226688521E-03       4   13    1        -0.7213022018E-02      0.1300400138E-01
          0                 6           1             4   13     1      -0.6110445879E-04       4   13    1        -0.3592848358E-02      0.6453707793E-02

    ------------------------------------------------
       NWT REQUIRED            6 OUTER ITERATIONS 
       AND A TOTAL OF         11 INNER ITERATIONS.
    ------------------------------------------------

 NO OUTPUT CONTROL FOR STRESS PERIOD   46   TIME STEP    7
 
 SOLVING FOR HEAD 
                                                   Max.-Head-Change                         Max.-Flux-Residual
  Residual-Control   Outer-Iter.   Inner-Iter.     Column Row Layer    Maximum-Head-Change  Column Row Layer    Maximum-Flux-Residual          L2-NORM 
          0                 1           2             5    7     1       0.3666575415E-01       5    7    1         0.1946054452E+01      0.5132603538E+01
          0                 2           2             5    7     1      -0.3566571061E-02       5    7    1        -0.1946048257E+00      0.6089075538E+00
          0                 3           2             7   13     1      -0.9923297768E-03       7   13    1        -0.5516716760E-01      0.9012678837E-01
          0                 4           2             4   13     1      -0.2354420663E-03       4   13    1        -0.1384532847E-01      0.2436933784E-01
          0                 5           2             4   13     1      -0.1218143423E-03       4   13    1        -0.7162739943E-02      0.1291677236E-01
          0                 6           1             4   13     1      -0.6069631303E-04       4   13    1        -0.3568862709E-02      0.6409957071E-02

    ------------------------------------------------
       NWT REQUIRED            6 OUTER ITERATIONS 
       AND A TOTAL OF         11 INNER ITERATIONS.
    ------------------------------------------------

 NO OUTPUT CONTROL FOR STRESS PERIOD   46   TIME STEP    8
 
 SOLVING FOR HEAD 
                                                   Max.-Head-Change                         Max.-Flux-Residual
  Residual-Control   Outer-Iter.   Inner-Iter.     Column Row Layer    Maximum-Head-Change  Column Row Layer    Maximum-Flux-Residual          L2-NORM 
          0                 1           2             5    7     1       0.3590212905E-01       5    7    1         0.1905588180E+01      0.4992284706E+01
          0                 2           2             5    7     1      -0.3492293156E-02       5    7    1        -0.1905583340E+00      0.5968803249E+00
          0                 3           2             7   13     1      -0.9928440864E-03       7   13    1        -0.5519501286E-01      0.9009529785E-01
          0                 4           2             4   13     1      -0.2340990132E-03       4   13    1        -0.1376631062E-01      0.2423306009E-01
          0                 5           1             4   13     1      -0.1214588904E-03       4   13    1        -0.7141880144E-02      0.1287256696E-01
          0                 6           1             4   13     1      -0.6045819563E-04       4   13    1        -0.3554848926E-02      0.6385253363E-02

    ------------------------------------------------
       NWT REQUIRED            6 OUTER ITERATIONS 
       AND A TOTAL OF         10 INNER ITERATIONS.
    ------------------------------------------------

 NO OUTPUT CONTROL FOR STRESS PERIOD   46   TIME STEP    9
 
 SOLVING FOR HEAD 
                                                   Max.-Head-Change                         Max.-Flux-Residual
  Residual-Control   Outer-Iter.   Inner-Iter.     Column Row Layer    Maximum-Head-Change  Column Row Layer    Maximum-Flux-Residual          L2-NORM 
          0                 1           2             5    7     1       0.3515401971E-01       5    7    1         0.1865904408E+01      0.4858850896E+01
          0                 2           2             5    7     1      -0.3419524265E-02       4   13    1        -0.1905637582E+00      0.5857969044E+00
          0                 3           2             7   13     1      -0.9937035676E-03       7   13    1        -0.5524271753E-01      0.8984697063E-01
          0                 4           2             4   13     1      -0.2323968532E-03       4   13    1        -0.1366621462E-01      0.2404754761E-01
          0                 5           1             4   13     1      -0.1207090953E-03       4   13    1        -0.7097775319E-02      0.1279604241E-01
          0                 6           1             4   13     1      -0.6008403508E-04       4   13    1        -0.3532845252E-02      0.6346233030E-02

    ------------------------------------------------
       NWT REQUIRED            6 OUTER ITERATIONS 
       AND A TOTAL OF         10 INNER ITERATIONS.
    ------------------------------------------------

 NO OUTPUT CONTROL FOR STRESS PERIOD   46   TIME STEP   10
 
 SOLVING FOR HEAD 
                                                   Max.-Head-Change                         Max.-Flux-Residual
  Residual-Control   Outer-Iter.   Inner-Iter.     Column Row Layer    Maximum-Head-Change  Column Row Layer    Maximum-Flux-Residual          L2-NORM 
          0                 1           2             4    7     1       0.3466080293E-01       5    7    1         0.1827025111E+01      0.4731820950E+01
          0                 2           2             4    7     1      -0.3371551506E-02       4   13    1        -0.1900285622E+00      0.5747821910E+00
          0                 3           2             7   13     1      -0.9936875016E-03       7   13    1        -0.5524039379E-01      0.9010932405E-01
          0                 4           2             4   13     1      -0.2316704436E-03       4   13    1        -0.1362349199E-01      0.2397395495E-01
          0                 5           1             4   13     1      -0.1207002281E-03       4   13    1        -0.7097261250E-02      0.1279348300E-01
          0                 6           1             4   13     1      -0.6005009780E-04       4   13    1        -0.3530851012E-02      0.6342459757E-02

    ------------------------------------------------
       NWT REQUIRED            6 OUTER ITERATIONS 
       AND A TOTAL OF         10 INNER ITERATIONS.
    ------------------------------------------------

 NO OUTPUT CONTROL FOR STRESS PERIOD   46   TIME STEP   11
 
 SOLVING FOR HEAD 
                                                   Max.-Head-Change                         Max.-Flux-Residual
  Residual-Control   Outer-Iter.   Inner-Iter.     Column Row Layer    Maximum-Head-Change  Column Row Layer    Maximum-Flux-Residual          L2-NORM 
          0                 1           2             4    7     1       0.3438651104E-01       4    7    1         0.1800931520E+01      0.4610775840E+01
          0                 2           2             4    7     1      -0.3344872010E-02       4   13    1        -0.1901892550E+00      0.5650309401E+00
          0                 3           2             7   13     1      -0.9946129013E-03       7   13    1        -0.5529205373E-01      0.8979340008E-01
          0                 4           2             4   13     1      -0.2297614125E-03       4   13    1        -0.1351118699E-01      0.2377457960E-01
          0                 5           1             4   13     1      -0.1198951666E-03       4   13    1        -0.7049938712E-02      0.1270646527E-01
          0                 6           1             4   13     1      -0.5961885822E-04       4   13    1        -0.3505501333E-02      0.6295660976E-02

    ------------------------------------------------
       NWT REQUIRED            6 OUTER ITERATIONS 
       AND A TOTAL OF         10 INNER ITERATIONS.
    ------------------------------------------------

 NO OUTPUT CONTROL FOR STRESS PERIOD   46   TIME STEP   12
 
 SOLVING FOR HEAD 
                                                   Max.-Head-Change                         Max.-Flux-Residual
  Residual-Control   Outer-Iter.   Inner-Iter.     Column Row Layer    Maximum-Head-Change  Column Row Layer    Maximum-Flux-Residual          L2-NORM 
          0                 1           2             4    7     1       0.3409587012E-01       4    7    1         0.1786680464E+01      0.4495303515E+01
          0                 2           2             4    7     1      -0.3316602021E-02       4   13    1        -0.1901216405E+00      0.5555821114E+00
          0                 3           2             7   13     1      -0.9951640689E-03       7   13    1        -0.5532234799E-01      0.8970099915E-01
          0                 4           2             4   13     1      -0.2283864303E-03       4   13    1        -0.1343035902E-01      0.2362602509E-01
          0                 5           1             4   13     1      -0.1193279380E-03       4   13    1        -0.7016561595E-02      0.1264782974E-01
          0                 6           1             4   13     1      -0.5932676265E-04       4   13    1        -0.3488325029E-02      0.6264741116E-02

    ------------------------------------------------
       NWT REQUIRED            6 OUTER ITERATIONS 
       AND A TOTAL OF         10 INNER ITERATIONS.
    ------------------------------------------------

 NO OUTPUT CONTROL FOR STRESS PERIOD   46   TIME STEP   13
 
 SOLVING FOR HEAD 
                                                   Max.-Head-Change                         Max.-Flux-Residual
  Residual-Control   Outer-Iter.   Inner-Iter.     Column Row Layer    Maximum-Head-Change  Column Row Layer    Maximum-Flux-Residual          L2-NORM 
          0                 1           2             4    7     1       0.3379058829E-01       4    7    1         0.1771581725E+01      0.4385053189E+01
          0                 2           2             4    7     1      -0.3286907707E-02       4   13    1        -0.1900064719E+00      0.5465959662E+00
          0                 3           2             7   13     1      -0.9955798193E-03       7   13    1        -0.5534498468E-01      0.8966907329E-01
          0                 4           2             4   13     1      -0.2270942260E-03       4   13    1        -0.1335435609E-01      0.2348975182E-01
          0                 5           1             4   13     1      -0.1188828956E-03       4   13    1        -0.6990390849E-02      0.1260067925E-01
          0                 6           1             4   13     1      -0.5907877072E-04       4   13    1        -0.3473740763E-02      0.6238655181E-02

    ------------------------------------------------
       NWT REQUIRED            6 OUTER ITERATIONS 
       AND A TOTAL OF         10 INNER ITERATIONS.
    ------------------------------------------------

 NO OUTPUT CONTROL FOR STRESS PERIOD   46   TIME STEP   14
 
 SOLVING FOR HEAD 
                                                   Max.-Head-Change                         Max.-Flux-Residual
  Residual-Control   Outer-Iter.   Inner-Iter.     Column Row Layer    Maximum-Head-Change  Column Row Layer    Maximum-Flux-Residual          L2-NORM 
          0                 1           2             4    7     1       0.3347225568E-01       4    7    1         0.1755723868E+01      0.4279696065E+01
          0                 2           2             4    7     1      -0.3255943760E-02       4   13    1        -0.1900264573E+00      0.5382082586E+00
          0                 3           2             7   13     1      -0.9961350190E-03       7   13    1        -0.5537567399E-01      0.8953998827E-01
          0                 4           2             4   13     1      -0.2256372963E-03       4   13    1        -0.1326867750E-01      0.2333496651E-01
          0                 5           1             4   13     1      -0.1182707787E-03       4   13    1        -0.6954398536E-02      0.1253604845E-01
          0                 6           1             4   13     1      -0.5877600697E-04       4   13    1        -0.3455932874E-02      0.6206308717E-02

    ------------------------------------------------
       NWT REQUIRED            6 OUTER ITERATIONS 
       AND A TOTAL OF         10 INNER ITERATIONS.
    ------------------------------------------------

 NO OUTPUT CONTROL FOR STRESS PERIOD   46   TIME STEP   15
 
 SOLVING FOR HEAD 
                                                   Max.-Head-Change                         Max.-Flux-Residual
  Residual-Control   Outer-Iter.   Inner-Iter.     Column Row Layer    Maximum-Head-Change  Column Row Layer    Maximum-Flux-Residual          L2-NORM 
          0                 1           2             4    7     1       0.3314208755E-01       4    7    1         0.1739174631E+01      0.4178895723E+01
          0                 2           2             4   13     1      -0.3226537229E-02       4   13    1        -0.1899035406E+00      0.5300922080E+00
          0                 3           2             7   13     1      -0.9964345498E-03       7   13    1        -0.5539180805E-01      0.8957833239E-01
          0                 4           2             4   13     1      -0.2253673770E-03       4   13    1        -0.1325280869E-01      0.2330500915E-01
          0                 5           1             4   13     1      -0.1173397053E-03       4   13    1        -0.6899636433E-02      0.1243834273E-01
          0                 6           1             4   13     1      -0.5837088809E-04       4   13    1        -0.3432120276E-02      0.6162596021E-02

    ------------------------------------------------
       NWT REQUIRED            6 OUTER ITERATIONS 
       AND A TOTAL OF         10 INNER ITERATIONS.
    ------------------------------------------------

 NO OUTPUT CONTROL FOR STRESS PERIOD   46   TIME STEP   16
 
 SOLVING FOR HEAD 
                                                   Max.-Head-Change                         Max.-Flux-Residual
  Residual-Control   Outer-Iter.   Inner-Iter.     Column Row Layer    Maximum-Head-Change  Column Row Layer    Maximum-Flux-Residual          L2-NORM 
          0                 1           2             4    7     1       0.3280175472E-01       4    7    1         0.1722026437E+01      0.4082389861E+01
          0                 2           2             4   13     1      -0.3226825097E-02       4   13    1        -0.1899209351E+00      0.5220594708E+00
          0                 3           2             7   13     1      -0.9968853158E-03       7   13    1        -0.5541666742E-01      0.8944000422E-01
          0                 4           2             4   13     1      -0.2262144110E-03       4   13    1        -0.1330258657E-01      0.2339223657E-01
          0                 5           1             4   13     1      -0.1155335096E-03       4   13    1        -0.6793429991E-02      0.1224712258E-01
          0                 6           1             4   13     1      -0.5760320538E-04       4   13    1        -0.3386975714E-02      0.6082001988E-02

    ------------------------------------------------
       NWT REQUIRED            6 OUTER ITERATIONS 
       AND A TOTAL OF         10 INNER ITERATIONS.
    ------------------------------------------------

 NO OUTPUT CONTROL FOR STRESS PERIOD   46   TIME STEP   17
 
 SOLVING FOR HEAD 
                                                   Max.-Head-Change                         Max.-Flux-Residual
  Residual-Control   Outer-Iter.   Inner-Iter.     Column Row Layer    Maximum-Head-Change  Column Row Layer    Maximum-Flux-Residual          L2-NORM 
          0                 1           2             4    7     1       0.3245232220E-01       4    7    1         0.1704337126E+01      0.3990446258E+01
          0                 2           2             4   13     1      -0.3224906507E-02       4   13    1        -0.1898088950E+00      0.5152946429E+00
          0                 3           2             7   13     1      -0.9970809164E-03       7   13    1        -0.5542702954E-01      0.8948366891E-01
          0                 4           2             4   13     1      -0.2274080191E-03       4   13    1        -0.1337274757E-01      0.2351578311E-01
          0                 5           1             4   13     1      -0.1138600251E-03       4   13    1        -0.6695016339E-02      0.1207141229E-01
          0                 6           1             4   13     1      -0.5693774496E-04       4   13    1        -0.3347861109E-02      0.6009822031E-02

    ------------------------------------------------
       NWT REQUIRED            6 OUTER ITERATIONS 
       AND A TOTAL OF         10 INNER ITERATIONS.
    ------------------------------------------------

 NO OUTPUT CONTROL FOR STRESS PERIOD   46   TIME STEP   18
 
 SOLVING FOR HEAD 
                                                   Max.-Head-Change                         Max.-Flux-Residual
  Residual-Control   Outer-Iter.   Inner-Iter.     Column Row Layer    Maximum-Head-Change  Column Row Layer    Maximum-Flux-Residual          L2-NORM 
          0                 1           2             4    7     1       0.3209524353E-01       4    7    1         0.1686189460E+01      0.3902282486E+01
          0                 2           2             4   13     1      -0.3225294159E-02       4   13    1        -0.1898323799E+00      0.5085341533E+00
          0                 3           2             7   13     1      -0.9974185518E-03       7   13    1        -0.5544559970E-01      0.8940044366E-01
          0                 4           2             4   13     1      -0.2281757835E-03       4   13    1        -0.1341788842E-01      0.2359413097E-01
          0                 5           1             4   13     1      -0.1121995073E-03       4   13    1        -0.6597375752E-02      0.1189610007E-01
          0                 6           1             4   13     1      -0.5621525783E-04       4   13    1        -0.3305366823E-02      0.5934869286E-02

    ------------------------------------------------
       NWT REQUIRED            6 OUTER ITERATIONS 
       AND A TOTAL OF         10 INNER ITERATIONS.
    ------------------------------------------------

 NO OUTPUT CONTROL FOR STRESS PERIOD   46   TIME STEP   19
 
 SOLVING FOR HEAD 
                                                   Max.-Head-Change                         Max.-Flux-Residual
  Residual-Control   Outer-Iter.   Inner-Iter.     Column Row Layer    Maximum-Head-Change  Column Row Layer    Maximum-Flux-Residual          L2-NORM 
          0                 1           2             4    7     1       0.3173138595E-01       4    7    1         0.1667631259E+01      0.3817603490E+01
          0                 2           2             4   13     1      -0.3223602495E-02       4   13    1        -0.1897337216E+00      0.5019606302E+00
          0                 3           2             7   13     1      -0.9975177383E-03       7   13    1        -0.5545063013E-01      0.8943830081E-01
          0                 4           2             4   13     1      -0.2292855956E-03       4   13    1        -0.1348313786E-01      0.2370906521E-01
          0                 5           1             4   13     1      -0.1106508404E-03       4   13    1        -0.6506300581E-02      0.1173261506E-01
          0                 6           1             4   13     1      -0.5560308194E-04       4   13    1        -0.3269373500E-02      0.5870720813E-02

    ------------------------------------------------
       NWT REQUIRED            6 OUTER ITERATIONS 
       AND A TOTAL OF         10 INNER ITERATIONS.
    ------------------------------------------------

 NO OUTPUT CONTROL FOR STRESS PERIOD   46   TIME STEP   20
 
 SOLVING FOR HEAD 
                                                   Max.-Head-Change                         Max.-Flux-Residual
  Residual-Control   Outer-Iter.   Inner-Iter.     Column Row Layer    Maximum-Head-Change  Column Row Layer    Maximum-Flux-Residual          L2-NORM 
          0                 1           2             4    7     1       0.3136179858E-01       4    7    1         0.1648721573E+01      0.3736221655E+01
          0                 2           2             4   13     1      -0.3224042290E-02       4   13    1        -0.1897602829E+00      0.4958392919E+00
          0                 3           2             7   13     1      -0.9977531989E-03       7   13    1        -0.5546352522E-01      0.8936814702E-01
          0                 4           2             4   13     1      -0.2300315727E-03       4   13    1        -0.1352698712E-01      0.2378609885E-01
          0                 5           1             4   13     1      -0.1090894901E-03       4   13    1        -0.6414483895E-02      0.1156807316E-01
          0                 6           1             4   13     1      -0.5495536811E-04       4   13    1        -0.3231293516E-02      0.5800227098E-02

    ------------------------------------------------
       NWT REQUIRED            6 OUTER ITERATIONS 
       AND A TOTAL OF         10 INNER ITERATIONS.
    ------------------------------------------------

 NO OUTPUT CONTROL FOR STRESS PERIOD   46   TIME STEP   21
 
 SOLVING FOR HEAD 
                                                   Max.-Head-Change                         Max.-Flux-Residual
  Residual-Control   Outer-Iter.   Inner-Iter.     Column Row Layer    Maximum-Head-Change  Column Row Layer    Maximum-Flux-Residual          L2-NORM 
          0                 1           2             4    7     1       0.3098758655E-01       4    7    1         0.1629522154E+01      0.3657940101E+01
          0                 2           2             4   13     1      -0.3224670261E-02       4   13    1        -0.1897979246E+00      0.4900201796E+00
          0                 3           2             7   13     1      -0.9979535889E-03       7   13    1        -0.5547448899E-01      0.8929470563E-01
          0                 4           2             4   13     1      -0.2307180494E-03       4   13    1        -0.1356733876E-01      0.2385478709E-01
          0                 5           1             4   13     1      -0.1076015078E-03       4   13    1        -0.6326995389E-02      0.1141205578E-01
          0                 6           1             4   13     1      -0.5431376741E-04       4   13    1        -0.3193559393E-02      0.5733493560E-02

    ------------------------------------------------
       NWT REQUIRED            6 OUTER ITERATIONS 
       AND A TOTAL OF         10 INNER ITERATIONS.
    ------------------------------------------------

 NO OUTPUT CONTROL FOR STRESS PERIOD   46   TIME STEP   22
 
 SOLVING FOR HEAD 
                                                   Max.-Head-Change                         Max.-Flux-Residual
  Residual-Control   Outer-Iter.   Inner-Iter.     Column Row Layer    Maximum-Head-Change  Column Row Layer    Maximum-Flux-Residual          L2-NORM 
          0                 1           2             4    7     1       0.3060964592E-01       4    7    1         0.1610082936E+01      0.3582585920E+01
          0                 2           2             4   13     1      -0.3217069309E-02       4   13    1        -0.1893520438E+00      0.4839050195E+00
          0                 3           2             7   13     1      -0.9973771488E-03       7   13    1        -0.5544111793E-01      0.8966659744E-01
          0                 4           2             4   13     1      -0.2327198178E-03       4   13    1        -0.1368504544E-01      0.2406556120E-01
          0                 5           1             4   13     1      -0.1064667147E-03       4   13    1        -0.6260250952E-02      0.1129133318E-01
          0                 6           1             4   13     1      -0.5391642120E-04       4   13    1        -0.3170209136E-02      0.5690077231E-02

    ------------------------------------------------
       NWT REQUIRED            6 OUTER ITERATIONS 
       AND A TOTAL OF         10 INNER ITERATIONS.
    ------------------------------------------------

 NO OUTPUT CONTROL FOR STRESS PERIOD   46   TIME STEP   23
 
 SOLVING FOR HEAD 
                                                   Max.-Head-Change                         Max.-Flux-Residual
  Residual-Control   Outer-Iter.   Inner-Iter.     Column Row Layer    Maximum-Head-Change  Column Row Layer    Maximum-Flux-Residual          L2-NORM 
          0                 1           2             4    7     1       0.3022865881E-01       4    7    1         0.1590443032E+01      0.3509999859E+01
          0                 2           2             4   13     1      -0.3218888765E-02       4   13    1        -0.1894596851E+00      0.4786916123E+00
          0                 3           2             7   13     1      -0.9975908425E-03       7   13    1        -0.5545299003E-01      0.8954126357E-01
          0                 4           2             4   13     1      -0.2332300402E-03       4   13    1        -0.1371505305E-01      0.2411544276E-01
          0                 5           1             4   13     1      -0.1049931508E-03       4   13    1        -0.6173579572E-02      0.1113816389E-01
          0                 6           1             4   13     1      -0.5329499570E-04       4   13    1        -0.3133663974E-02      0.5624757852E-02

    ------------------------------------------------
       NWT REQUIRED            6 OUTER ITERATIONS 
       AND A TOTAL OF         10 INNER ITERATIONS.
    ------------------------------------------------

 NO OUTPUT CONTROL FOR STRESS PERIOD   46   TIME STEP   24
 
 SOLVING FOR HEAD 
                                                   Max.-Head-Change                         Max.-Flux-Residual
  Residual-Control   Outer-Iter.   Inner-Iter.     Column Row Layer    Maximum-Head-Change  Column Row Layer    Maximum-Flux-Residual          L2-NORM 
          0                 1           2             4    7     1       0.2984539906E-01       4    7    1         0.1570645176E+01      0.3440029102E+01
          0                 2           2             4   13     1      -0.3218447503E-02       4   13    1        -0.1894344740E+00      0.4735640549E+00
          0                 3           2             7   13     1      -0.9975675495E-03       7   13    1        -0.5545137167E-01      0.8953998113E-01
          0                 4           2             4   13     1      -0.2339981418E-03       4   13    1        -0.1376019452E-01      0.2419628691E-01
          0                 5           1             4   13     1      -0.1037232309E-03       4   13    1        -0.6098919621E-02      0.1100269338E-01
          0                 6           1             4   13     1      -0.5276356490E-04       4   13    1        -0.3102421439E-02      0.5567266760E-02

    ------------------------------------------------
       NWT REQUIRED            6 OUTER ITERATIONS 
       AND A TOTAL OF         10 INNER ITERATIONS.
    ------------------------------------------------

 NO OUTPUT CONTROL FOR STRESS PERIOD   46   TIME STEP   25
 
 SOLVING FOR HEAD 
                                                   Max.-Head-Change                         Max.-Flux-Residual
  Residual-Control   Outer-Iter.   Inner-Iter.     Column Row Layer    Maximum-Head-Change  Column Row Layer    Maximum-Flux-Residual          L2-NORM 
          0                 1           2             4    7     1       0.2946070416E-01       4    7    1         0.1550736837E+01      0.3372530883E+01
          0                 2           2             4   13     1      -0.3220061810E-02       4   13    1        -0.1895300365E+00      0.4688093243E+00
          0                 3           2             7   13     1      -0.9976833356E-03       7   13    1        -0.5545777156E-01      0.8943348645E-01
          0                 4           2             4   13     1      -0.2344511454E-03       4   13    1        -0.1378682833E-01      0.2424136693E-01
          0                 5           1             4   13     1      -0.1023821753E-03       4   13    1        -0.6020061906E-02      0.1086051472E-01
          0                 6           1             4   13     1      -0.5219172554E-04       4   13    1        -0.3068784845E-02      0.5508420093E-02

    ------------------------------------------------
       NWT REQUIRED            6 OUTER ITERATIONS 
       AND A TOTAL OF         10 INNER ITERATIONS.
    ------------------------------------------------

 NO OUTPUT CONTROL FOR STRESS PERIOD   46   TIME STEP   26
 
 SOLVING FOR HEAD 
                                                   Max.-Head-Change                         Max.-Flux-Residual
  Residual-Control   Outer-Iter.   Inner-Iter.     Column Row Layer    Maximum-Head-Change  Column Row Layer    Maximum-Flux-Residual          L2-NORM 
          0                 1           2             4    7     1       0.2907494865E-01       4    7    1         0.1530739365E+01      0.3307382300E+01
          0                 2           2             4   13     1      -0.3219665812E-02       4   13    1        -0.1895075001E+00      0.4641246193E+00
          0                 3           2             7   13     1      -0.9975706865E-03       7   13    1        -0.5545118582E-01      0.8943765826E-01
          0                 4           2             4   13     1      -0.2352290724E-03       4   13    1        -0.1383256398E-01      0.2432081281E-01
          0                 5           1             4   13     1      -0.1011705981E-03       4   13    1        -0.5948805308E-02      0.1073325285E-01
          0                 6           1             4   13     1      -0.5170956411E-04       4   13    1        -0.3040447727E-02      0.5456319233E-02

    ------------------------------------------------
       NWT REQUIRED            6 OUTER ITERATIONS 
       AND A TOTAL OF         10 INNER ITERATIONS.
    ------------------------------------------------

 NO OUTPUT CONTROL FOR STRESS PERIOD   46   TIME STEP   27
 
 SOLVING FOR HEAD 
                                                   Max.-Head-Change                         Max.-Flux-Residual
  Residual-Control   Outer-Iter.   Inner-Iter.     Column Row Layer    Maximum-Head-Change  Column Row Layer    Maximum-Flux-Residual          L2-NORM 
          0                 1           2             4    7     1       0.2868913708E-01       4    7    1         0.1510708972E+01      0.3244452372E+01
          0                 2           2             4   13     1      -0.3221196355E-02       4   13    1        -0.1895981171E+00      0.4597829700E+00
          0                 3           2             7   13     1      -0.9976056332E-03       7   13    1        -0.5545307841E-01      0.8934096254E-01
          0                 4           2             4   13     1      -0.2356127866E-03       4   13    1        -0.1385508513E-01      0.2436325764E-01
          0                 5           1             4   13     1      -0.9995322179E-04       4   13    1        -0.5877246785E-02      0.1060289414E-01

    ------------------------------------------------
       NWT REQUIRED            5 OUTER ITERATIONS 
       AND A TOTAL OF          9 INNER ITERATIONS.
    ------------------------------------------------

 NO OUTPUT CONTROL FOR STRESS PERIOD   46   TIME STEP   28
 
 SOLVING FOR HEAD 
                                                   Max.-Head-Change                         Max.-Flux-Residual
  Residual-Control   Outer-Iter.   Inner-Iter.     Column Row Layer    Maximum-Head-Change  Column Row Layer    Maximum-Flux-Residual          L2-NORM 
          0                 1           2             4    7     1       0.2830339587E-01       4    7    1         0.1490653590E+01      0.3183572019E+01
          0                 2           2             4   13     1      -0.3220746382E-02       4   13    1        -0.1895721667E+00      0.4554940960E+00
          0                 3           2             7   13     1      -0.9991940076E-03       7   13    1        -0.5554063881E-01      0.8967423526E-01
          0                 4           2             4   13     1      -0.2381708047E-03       4   13    1        -0.1400547554E-01      0.2462953923E-01
          0                 5           1             4   13     1      -0.9568409942E-04       4   13    1        -0.5626196133E-02      0.1015397551E-01

    ------------------------------------------------
       NWT REQUIRED            5 OUTER ITERATIONS 
       AND A TOTAL OF          9 INNER ITERATIONS.
    ------------------------------------------------

 NO OUTPUT CONTROL FOR STRESS PERIOD   46   TIME STEP   29
 
 SOLVING FOR HEAD 
                                                   Max.-Head-Change                         Max.-Flux-Residual
  Residual-Control   Outer-Iter.   Inner-Iter.     Column Row Layer    Maximum-Head-Change  Column Row Layer    Maximum-Flux-Residual          L2-NORM 
          0                 1           2             4    7     1       0.2791836784E-01       4    7    1         0.1470609208E+01      0.3124707322E+01
          0                 2           2             4   13     1      -0.3220427595E-02       4   13    1        -0.1895539509E+00      0.4513941641E+00
          0                 3           2             7   13     1      -0.1000630365E-02       7   13    1        -0.5561979259E-01      0.8998231373E-01
          0                 4           2             4   13     1      -0.2405640893E-03       4   13    1        -0.1414616668E-01      0.2487910988E-01
          0                 5           1             4   13     1      -0.9167438226E-04       4   13    1        -0.5390394626E-02      0.9733990164E-02

    ------------------------------------------------
       NWT REQUIRED            5 OUTER ITERATIONS 
       AND A TOTAL OF          9 INNER ITERATIONS.
    ------------------------------------------------

 NO OUTPUT CONTROL FOR STRESS PERIOD   46   TIME STEP   30



 STREAM LISTING     PERIOD     46   STEP       30

 LAYER ROW COL. STREAM  RCH.  FLOW INTO     FLOW TO   FLOW OUT OF   OVRLND.     DIRECT     STREAM       STREAM     STREAM     STREAM   STREAMBED  STREAMBED
                SEG.NO.  NO.  STRM. RCH.    AQUIFER    STRM. RCH.    RUNOFF     PRECIP       ET          HEAD       DEPTH      WIDTH   CONDCTNC.   GRADIENT

   1    1    1     1     1    1.8749E+01  2.1264E-01   1.8537E+01  0.000E+00  0.000E+00  0.000E+00  1.09413E+03  1.078E+00  1.159E+01  5.215E-02  1.359E+00
   1    2    2     1     2    1.8537E+01  3.2801E-01   1.8209E+01  0.000E+00  0.000E+00  0.000E+00  1.08913E+03  1.073E+00  1.150E+01  8.053E-02  1.358E+00
   1    3    3     1     3    1.8209E+01  2.7848E-01   1.7930E+01  0.000E+00  0.000E+00  0.000E+00  1.08349E+03  1.068E+00  1.141E+01  6.845E-02  1.356E+00
   1    3    4     1     4    1.7930E+01  2.5541E-01   1.7675E+01  0.000E+00  0.000E+00  0.000E+00  1.07847E+03  1.064E+00  1.132E+01  6.285E-02  1.355E+00
   1    4    5     2     1    1.5675E+01  3.0476E-01   1.5370E+01  0.000E+00  0.000E+00  0.000E+00  1.07284E+03  9.072E-01  1.200E+01  7.800E-02  1.302E+00
   1    5    6     2     2    1.5370E+01  2.3387E-01   1.5136E+01  0.000E+00  0.000E+00  0.000E+00  1.06741E+03  8.978E-01  1.200E+01  6.000E-02  1.299E+00
   1    6    6     2     3    1.5136E+01  2.3337E-01   1.4903E+01  0.000E+00  0.000E+00  0.000E+00  1.06268E+03  8.895E-01  1.200E+01  6.000E-02  1.296E+00
   1    7    6     2     4    1.4903E+01  2.3287E-01   1.4670E+01  0.000E+00  0.000E+00  0.000E+00  1.05796E+03  8.812E-01  1.200E+01  6.000E-02  1.294E+00
   1    8    6     2     5    1.4670E+01  2.3237E-01   1.4438E+01  0.000E+00  0.000E+00  0.000E+00  1.05323E+03  8.728E-01  1.200E+01  6.000E-02  1.291E+00
   1    3    5     3     1    2.0000E+00  2.8252E-01   1.7175E+00  0.000E+00  0.000E+00  0.000E+00  1.07555E+03  1.909E+00  9.636E+00  7.227E-02  1.955E+00
   1    3    6     3     2    1.7175E+00  2.4905E-01   1.4684E+00  0.000E+00  0.000E+00  0.000E+00  1.07264E+03  1.727E+00  8.909E+00  6.682E-02  1.864E+00
   1    3    7     3     3    1.4684E+00  1.9718E-01   1.2712E+00  0.000E+00  0.000E+00  0.000E+00  1.06987E+03  1.555E+00  8.218E+00  5.547E-02  1.777E+00
   1    4    8     3     4    1.2712E+00  2.2567E-01   1.0456E+00  0.000E+00  0.000E+00  0.000E+00  1.06682E+03  1.364E+00  7.455E+00  6.709E-02  1.682E+00
   1    5    8     3     5    1.0456E+00  1.5790E-01   8.8768E-01  0.000E+00  0.000E+00  0.000E+00  1.06362E+03  1.164E+00  6.655E+00  4.991E-02  1.582E+00
   1    6    8     3     6    8.8768E-01  5.5980E-02   8.3170E-01  0.000E+00  0.000E+00  0.000E+00  1.06158E+03  1.036E+00  6.145E+00  1.844E-02  1.518E+00
   1    5   10     4     1    1.0000E+01  9.0919E-02   9.9091E+00  0.000E+00  0.000E+00  0.000E+00  1.07836E+03  6.368E-01  1.000E+01  2.500E-02  1.212E+00
   1    5    9     4     2    9.9091E+00  1.8158E-01   9.7275E+00  0.000E+00  0.000E+00  0.000E+00  1.07154E+03  6.315E-01  1.000E+01  5.000E-02  1.211E+00
   1    6    8     4     3    9.7275E+00  1.2689E-01   9.6006E+00  0.000E+00  0.000E+00  0.000E+00  1.06381E+03  6.256E-01  1.000E+01  3.500E-02  1.209E+00
   1    6    8     5     1    1.0432E+01  2.2686E-01   1.0205E+01  0.000E+00  0.000E+00  0.000E+00  1.05868E+03  6.790E-01  1.542E+01  6.166E-02  1.226E+00
   1    7    7     5     2    1.0205E+01  2.7894E-01   9.9265E+00  0.000E+00  0.000E+00  0.000E+00  1.05417E+03  6.732E-01  1.519E+01  7.594E-02  1.224E+00
   1    8    7     5     3    9.9265E+00  1.9221E-01   9.7343E+00  0.000E+00  0.000E+00  0.000E+00  1.04992E+03  6.676E-01  1.497E+01  5.241E-02  1.223E+00
   1    8    6     5     4    9.7343E+00  1.3577E-01   9.5985E+00  0.000E+00  0.000E+00  0.000E+00  1.04691E+03  6.637E-01  1.482E+01  3.706E-02  1.221E+00
   1    9    6     6     1    1.3106E+01  2.2979E-01   1.2876E+01  0.000E+00  0.000E+00  0.000E+00  1.04356E+03  8.299E-01  1.200E+01  6.000E-02  1.277E+00
   1   10    7     6     2    1.2876E+01  2.2927E-01   1.2647E+01  0.000E+00  0.000E+00  0.000E+00  1.03900E+03  8.212E-01  1.200E+01  6.000E-02  1.274E+00
   1   11    7     6     3    1.2647E+01  2.2874E-01   1.2418E+01  0.000E+00  0.000E+00  0.000E+00  1.03445E+03  8.124E-01  1.200E+01  6.000E-02  1.271E+00
   1   12    7     6     4    1.2418E+01  2.2822E-01   1.2190E+01  0.000E+00  0.000E+00  0.000E+00  1.02989E+03  8.036E-01  1.200E+01  6.000E-02  1.268E+00
   1   13    7     6     5    1.2190E+01 -7.0902E-02   1.2261E+01  0.000E+00  0.000E+00  0.000E+00  1.02671E+03  8.005E-01  1.200E+01  2.400E-01 -9.847E-02
   1   14    9     7     1    1.5000E+02  1.3442E+00   1.4866E+02  0.000E+00  0.000E+00  0.000E+00  1.03987E+03  2.288E+00  5.529E+01  5.593E-01  8.011E-01
   1   13    8     7     2    1.4866E+02  1.8535E+00   1.4680E+02  0.000E+00  0.000E+00  0.000E+00  1.03478E+03  2.279E+00  5.526E+01  6.148E-01  1.005E+00
   1   13    7     7     3    1.4680E+02  1.4992E+00   1.4530E+02  0.000E+00  0.000E+00  0.000E+00  1.02969E+03  2.270E+00  5.522E+01  5.584E-01  8.948E-01
   1   13    6     8     1    1.5756E+02  8.7512E-01   1.5669E+02  0.000E+00  0.000E+00  0.000E+00  1.02474E+03  2.867E+00  4.158E+01  4.237E-01  6.885E-01
   1   13    5     8     2    1.5669E+02  1.4136E-01   1.5655E+02  0.000E+00  0.000E+00  0.000E+00  1.01849E+03  2.864E+00  4.153E+01  4.232E-01  1.114E-01
   1   13    4     8     3    1.5655E+02 -2.5340E+00   1.5908E+02  0.000E+00  0.000E+00  0.000E+00  1.01225E+03  2.872E+00  4.164E+01  4.244E+00 -1.990E-01
   1   13    3     8     4    1.5908E+02 -3.6805E+00   1.6276E+02  0.000E+00  0.000E+00  0.000E+00  1.00602E+03  2.893E+00  4.195E+01  4.275E+00 -2.870E-01
   1   13    2     8     5    1.6276E+02 -2.5797E+00   1.6534E+02  0.000E+00  0.000E+00  0.000E+00  9.99789E+02  2.914E+00  4.225E+01  4.306E+00 -1.997E-01
   1   13    1     8     6    1.6534E+02 -1.9757E+00   1.6732E+02  0.000E+00  0.000E+00  0.000E+00  9.94804E+02  2.929E+00  4.247E+01  2.597E+00 -2.536E-01
   1    8    6     9     1    1.0930E+01  0.0000E+00   1.0930E+01  0.000E+00  0.000E+00  0.000E+00  1.08112E+03  2.371E+00  4.000E+00  0.000E+00  1.790E+00
   1    8    5     9     2    1.0930E+01  0.0000E+00   1.0930E+01  0.000E+00  0.000E+00  0.000E+00  1.08062E+03  2.371E+00  4.000E+00  0.000E+00  1.790E+00





UNSATURATED ZONE PACKAGE VOLUMETRIC BUDGET FOR  TIME STEP    30 STRESS PERIOD   46
  ------------------------------------------------------------------------------



     CUMULATIVE VOLUMES      L**3       RATES FOR THIS TIME STEP      L**3/T
     ------------------                 ------------------------

           IN:                                      IN:
           ---                                      ---
        INFILTRATION =  2103478559.4910          INFILTRATION =          15.3380

          OUT:                                     OUT:
          ----                                     ----
              UZF ET =  1970763930.0549                UZF ET =          15.2854
        UZF RECHARGE =     1884068.5034          UZF RECHARGE =       0.0000E+00

            IN - OUT =   130830560.9327              IN - OUT =       5.2654E-02

          STORAGE:                                 STORAGE:
          --------                                 --------
      STORAGE CHANGE =   130832402.0932        STORAGE CHANGE =       5.2654E-02

 PERCENT DISCREPANCY IS DIFFERENCE BETWEEN IN-OUT MINUS CHANGE IN STORAGE
 DIVIDED BY THE AVERAGE OF IN AND OUT TIMES 100

 PERCENT DISCREPANCY =          -0.00     PERCENT DISCREPANCY =           0.00






1
  VOLUMETRIC BUDGET FOR AGRICULTURAL FIELDS AT TIME STEP   30, STRESS PERIOD  46
  ------------------------------------------------------------------------------

     CUMULATIVE VOLUMES      L**3       RATES FOR THIS TIME STEP      L**3/T
     ------------------                 ------------------------

           IN:                                      IN:
           ---                                      ---
               AG WELLS  =   350366144.0000                 AG WELLS  =           0.0000
      DIVERSION SEGMENTS =  1231390464.0000        DIVERSION SEGMENTS =          10.9303
           GW IRRIGATION =           0.0000             GW IRRIGATION =           0.0000
           SW IRRIGATION =           0.0000             SW IRRIGATION =           0.0000
        SYSTEM LOSSES GW =           0.0000          SYSTEM LOSSES GW =           0.0000
        SYSTEM LOSSES SW =           0.0000          SYSTEM LOSSES SW =           0.0000

                TOTAL IN =  1581756672.0000                  TOTAL IN =          10.9303

          OUT:                                     OUT:
          ----                                     ----
               AG WELLS  =           0.0000                 AG WELLS  =           0.0000
      DIVERSION SEGMENTS =           0.0000        DIVERSION SEGMENTS =           0.0000
           GW IRRIGATION =   350366144.0000             GW IRRIGATION =           0.0000
           SW IRRIGATION =  1231413120.0000             SW IRRIGATION =          10.9305
        SYSTEM LOSSES GW =           0.0000          SYSTEM LOSSES GW =           0.0000
        SYSTEM LOSSES SW =           0.0000          SYSTEM LOSSES SW =           0.0000

               TOTAL OUT =  1581779200.0000                 TOTAL OUT =          10.9305

                IN - OUT =      -22528.0000                  IN - OUT =      -2.1744E-04

     PERCENT DISCREPANCY =          -0.00         PERCENT DISCREPANCY =          -0.00



1
  VOLUMETRIC BUDGET FOR ENTIRE MODEL AT END OF TIME STEP   30, STRESS PERIOD  46
  ------------------------------------------------------------------------------

     CUMULATIVE VOLUMES      L**3       RATES FOR THIS TIME STEP      L**3/T
     ------------------                 ------------------------

           IN:                                      IN:
           ---                                      ---
             STORAGE     =   541769216.0000               STORAGE     =           6.5738
       CONSTANT HEAD     =           0.0000         CONSTANT HEAD     =           0.0000
     HEAD DEP BOUNDS     =    33862764.0000       HEAD DEP BOUNDS     =           0.2863
      STREAM LEAKAGE     =  1415316736.0000        STREAM LEAKAGE     =          11.3426
        UZF RECHARGE     =     1884068.8750          UZF RECHARGE     =           0.0000
               GW ET     =           0.0000                 GW ET     =           0.0000
     SURFACE LEAKAGE     =           0.0000       SURFACE LEAKAGE     =           0.0000
           AG WELLS      =           0.0000             AG WELLS      =           0.0000

                TOTAL IN =  1992832768.0000                  TOTAL IN =          18.2027

          OUT:                                     OUT:
          ----                                     ----
             STORAGE     =   323742112.0000               STORAGE     =           7.0727
       CONSTANT HEAD     =           0.0000         CONSTANT HEAD     =           0.0000
     HEAD DEP BOUNDS     =    34429268.0000       HEAD DEP BOUNDS     =           0.2875
      STREAM LEAKAGE     =  1280418816.0000        STREAM LEAKAGE     =          10.8408
        UZF RECHARGE     =           0.0000          UZF RECHARGE     =           0.0000
               GW ET     =     3813745.5000                 GW ET     =           0.0000
     SURFACE LEAKAGE     =           0.0000       SURFACE LEAKAGE     =           0.0000
           AG WELLS      =   350366144.0000             AG WELLS      =           0.0000

               TOTAL OUT =  1992770048.0000                 TOTAL OUT =          18.2009

                IN - OUT =       62720.0000                  IN - OUT =       1.7509E-03

     PERCENT DISCREPANCY =           0.00         PERCENT DISCREPANCY =           0.01






         TIME SUMMARY AT END OF TIME STEP   30 IN STRESS PERIOD   46
                    SECONDS     MINUTES      HOURS       DAYS        YEARS
                    -----------------------------------------------------------
   TIME STEP LENGTH  87667.      1461.1      24.352      1.0147     2.77799E-03
 STRESS PERIOD TIME 2.63000E+06  43833.      730.56      30.440     8.33397E-02
         TOTAL TIME 1.18435E+08 1.97392E+06  32899.      1370.8      3.7530    
1
1
                            STRESS PERIOD NO.   47, LENGTH =   2630000.    
                            -----------------------------------------------

                              NUMBER OF TIME STEPS =    30

                               MULTIPLIER FOR DELT =     1.000

                            INITIAL TIME STEP SIZE =   87666.66    

 REUSING NON-PARAMETER GHB CELLS FROM LAST STRESS PERIOD

      2 GHB CELLS

 REUSING STREAM SEGMENT DATA FROM LAST STRESS PERIOD



            AREAL INFILTRATION RATE
 READING ON UNIT   19 WITH FORMAT: (10F4.0)            

            1           2           3           4           5           6           7           8           9          10
 ........................................................................................................................
   1   1.2000E-09   0.000       0.000       0.000       0.000       0.000       0.000       0.000       0.000       0.000    
   2   2.1000E-09  2.0000E-09  8.0000E-10  8.5000E-09   0.000       0.000       0.000       0.000       0.000       0.000    
   3   5.0000E-10  1.1000E-09  8.8000E-09  5.5000E-09   0.000       0.000       0.000       0.000       0.000       0.000    
   4   8.5000E-09  1.1000E-09  1.1000E-09  1.1000E-09  2.0000E-09   0.000       0.000       0.000       0.000       0.000    
   5   8.5000E-09  1.1000E-09  1.1000E-09  1.1000E-09  1.1000E-09   0.000       0.000       0.000       0.000       0.000    
   6   8.5000E-09  5.2000E-09  2.1000E-09  1.1000E-09  1.5000E-09   0.000       0.000       0.000       0.000       0.000    
   7   8.5000E-09  5.2000E-09  2.1000E-09  1.2000E-09  2.0000E-09   0.000       0.000       0.000       0.000       0.000    
   8   5.0000E-10  5.2000E-09  2.1000E-09  1.2000E-09  5.0000E-09   0.000       0.000       0.000       0.000       0.000    
   9   5.0000E-10  5.2000E-09  2.1000E-09  1.2000E-09  5.0000E-09   0.000       0.000       0.000       0.000       0.000    
  10   5.0000E-10  5.2000E-09  2.1000E-09  1.2000E-09  5.8000E-09   0.000       0.000       0.000       0.000       0.000    
  11   1.0000E-10  1.1000E-09  1.1000E-09  1.2000E-09  5.0000E-09   0.000       0.000       0.000       0.000       0.000    
  12   1.1000E-09  1.1000E-09  1.1000E-09  1.1000E-09  2.0000E-09   0.000       0.000       0.000       0.000       0.000    
  13   1.1000E-09  2.2000E-09  2.2000E-09  2.1000E-09  1.0000E-09   0.000       0.000       0.000       0.000       0.000    
  14   2.0000E-10  5.5000E-09  5.5000E-09  5.2000E-09  1.0000E-09   0.000       0.000       0.000       0.000       0.000    
  15    0.000      8.8000E-09  8.8000E-09   0.000       0.000       0.000       0.000       0.000       0.000       0.000    

                  ET RATE =  5.000000E-09

 USING ET EXTINCTION DEPTH FROM PREVIOUS STRESS PERIOD. CURRENT PERIOD IS:      47

 USING EXTINCTION WATER CONTENT FROM PREVIOUS STRESS PERIOD. CURRENT PERIOD IS:      47

 USING AIR ENTRY PRESSURE FROM PREVIOUS STRESS PERIOD. CURRENT PERIOD IS:      47

 USING ROOT PRESSURE HEAD FROM PREVIOUS STRESS PERIOD. CURRENT PERIOD IS:      47

 USING ROOT ACTIVITY FROM PREVIOUS STRESS PERIOD. CURRENT PERIOD IS:      47

 PROCESSING AG STRESS PERIOD DATA

 READING AG STRESS PERIOD DATA

 READING IRRIGATION SEGMENT

 READING IRRIGATION WELL

 READING SUPPLEMENTAL WELL

 END PROCESSING AG STRESS PERIOD DATA OPTIONS
 
 SOLVING FOR HEAD 
                                                   Max.-Head-Change                         Max.-Flux-Residual
  Residual-Control   Outer-Iter.   Inner-Iter.     Column Row Layer    Maximum-Head-Change  Column Row Layer    Maximum-Flux-Residual          L2-NORM 
          0                 1           2             4    7     1       0.2753464849E-01       4    7    1         0.1450609158E+01      0.3067758486E+01
          0                 2           2             4    7     1      -0.2678382462E-02       4    7    1        -0.1450617216E+00      0.3093770890E+00
          0                 3           2             4    7     1       0.1823877977E-03       4    7    1         0.1015431727E-01      0.2136267262E-01
          0                 4           1             4   13     1      -0.1580894532E-04       4   13    1        -0.9313549936E-03      0.1828779637E-02

    ------------------------------------------------
       NWT REQUIRED            4 OUTER ITERATIONS 
       AND A TOTAL OF          7 INNER ITERATIONS.
    ------------------------------------------------

 NO OUTPUT CONTROL FOR STRESS PERIOD   47   TIME STEP    1
 
 SOLVING FOR HEAD 
                                                   Max.-Head-Change                         Max.-Flux-Residual
  Residual-Control   Outer-Iter.   Inner-Iter.     Column Row Layer    Maximum-Head-Change  Column Row Layer    Maximum-Flux-Residual          L2-NORM 
          0                 1           2             4    7     1       0.2715251460E-01       4    7    1         0.1430669684E+01      0.3008258207E+01
          0                 2           2             4    7     1      -0.2641211183E-02       4    7    1        -0.1430677698E+00      0.3027530086E+00
          0                 3           2             4    7     1       0.1798565724E-03       4    7    1         0.1001474062E-01      0.2093119002E-01
          0                 4           1             4   13     1      -0.1674093386E-04       4   13    1        -0.9861788521E-03      0.1908931345E-02

    ------------------------------------------------
       NWT REQUIRED            4 OUTER ITERATIONS 
       AND A TOTAL OF          7 INNER ITERATIONS.
    ------------------------------------------------

 NO OUTPUT CONTROL FOR STRESS PERIOD   47   TIME STEP    2
 
 SOLVING FOR HEAD 
                                                   Max.-Head-Change                         Max.-Flux-Residual
  Residual-Control   Outer-Iter.   Inner-Iter.     Column Row Layer    Maximum-Head-Change  Column Row Layer    Maximum-Flux-Residual          L2-NORM 
          0                 1           2             4    7     1       0.2677247168E-01       4    7    1         0.1410819682E+01      0.2951222109E+01
          0                 2           2             4    7     1      -0.2604243277E-02       4    7    1        -0.1410827637E+00      0.2969627196E+00
          0                 3           2             4    7     1       0.1773391961E-03       4    7    1         0.9875790195E-02      0.2055723865E-01
          0                 4           1             4   13     1      -0.1755884969E-04       4   13    1        -0.1034309596E-02      0.1979570574E-02

    ------------------------------------------------
       NWT REQUIRED            4 OUTER ITERATIONS 
       AND A TOTAL OF          7 INNER ITERATIONS.
    ------------------------------------------------

 NO OUTPUT CONTROL FOR STRESS PERIOD   47   TIME STEP    3
 
 SOLVING FOR HEAD 
                                                   Max.-Head-Change                         Max.-Flux-Residual
  Residual-Control   Outer-Iter.   Inner-Iter.     Column Row Layer    Maximum-Head-Change  Column Row Layer    Maximum-Flux-Residual          L2-NORM 
          0                 1           2             4    7     1       0.2639472686E-01       4    7    1         0.1391070728E+01      0.2896250961E+01
          0                 2           2             4    7     1      -0.2567498892E-02       4    7    1        -0.1391078610E+00      0.2913807261E+00
          0                 3           2             4    7     1       0.1748370406E-03       4    7    1         0.9737547004E-02      0.2019480263E-01
          0                 4           1             4   13     1      -0.1833454664E-04       4   13    1        -0.1079952010E-02      0.2048401032E-02

    ------------------------------------------------
       NWT REQUIRED            4 OUTER ITERATIONS 
       AND A TOTAL OF          7 INNER ITERATIONS.
    ------------------------------------------------

 NO OUTPUT CONTROL FOR STRESS PERIOD   47   TIME STEP    4
 
 SOLVING FOR HEAD 
                                                   Max.-Head-Change                         Max.-Flux-Residual
  Residual-Control   Outer-Iter.   Inner-Iter.     Column Row Layer    Maximum-Head-Change  Column Row Layer    Maximum-Flux-Residual          L2-NORM 
          0                 1           2             4    7     1       0.2601958659E-01       4    7    1         0.1371440922E+01      0.2843208316E+01
          0                 2           2             4    7     1      -0.2531007843E-02       4    7    1        -0.1371448719E+00      0.2859931379E+00
          0                 3           2             4    7     1       0.1723521369E-03       4    7    1         0.9600137809E-02      0.1984360663E-01
          0                 4           1             4   13     1      -0.1905376621E-04       4   13    1        -0.1122284673E-02      0.2112522493E-02

    ------------------------------------------------
       NWT REQUIRED            4 OUTER ITERATIONS 
       AND A TOTAL OF          7 INNER ITERATIONS.
    ------------------------------------------------

 NO OUTPUT CONTROL FOR STRESS PERIOD   47   TIME STEP    5
 
 SOLVING FOR HEAD 
                                                   Max.-Head-Change                         Max.-Flux-Residual
  Residual-Control   Outer-Iter.   Inner-Iter.     Column Row Layer    Maximum-Head-Change  Column Row Layer    Maximum-Flux-Residual          L2-NORM 
          0                 1           2             4    7     1       0.2564733613E-01       4    7    1         0.1351946154E+01      0.2791975086E+01
          0                 2           2             4    7     1      -0.2494797878E-02       4    7    1        -0.1351953856E+00      0.2807981421E+00
          0                 3           2             4    7     1       0.1698863742E-03       4    7    1         0.9463673798E-02      0.1950731948E-01
          0                 4           1             4   13     1      -0.1942022461E-04       4   13    1        -0.1143836379E-02      0.2143512881E-02

    ------------------------------------------------
       NWT REQUIRED            4 OUTER ITERATIONS 
       AND A TOTAL OF          7 INNER ITERATIONS.
    ------------------------------------------------

 NO OUTPUT CONTROL FOR STRESS PERIOD   47   TIME STEP    6
 
 SOLVING FOR HEAD 
                                                   Max.-Head-Change                         Max.-Flux-Residual
  Residual-Control   Outer-Iter.   Inner-Iter.     Column Row Layer    Maximum-Head-Change  Column Row Layer    Maximum-Flux-Residual          L2-NORM 
          0                 1           2             4    7     1       0.2527834694E-01       4    7    1         0.1332608577E+01      0.2740472107E+01
          0                 2           2             4    7     1      -0.2458905134E-02       4    7    1        -0.1332616176E+00      0.2753619303E+00
          0                 3           2             4    7     1       0.1674422129E-03       4    7    1         0.9328310078E-02      0.1922831744E-01
          0                 4           1             3   13     1      -0.2502493172E-04       3   13    1        -0.1460587013E-02      0.2372739328E-02

    ------------------------------------------------
       NWT REQUIRED            4 OUTER ITERATIONS 
       AND A TOTAL OF          7 INNER ITERATIONS.
    ------------------------------------------------

 NO OUTPUT CONTROL FOR STRESS PERIOD   47   TIME STEP    7
 
 SOLVING FOR HEAD 
                                                   Max.-Head-Change                         Max.-Flux-Residual
  Residual-Control   Outer-Iter.   Inner-Iter.     Column Row Layer    Maximum-Head-Change  Column Row Layer    Maximum-Flux-Residual          L2-NORM 
          0                 1           2             4    7     1       0.2491282639E-01       4    7    1         0.1313440090E+01      0.2692363683E+01
          0                 2           2             4    7     1      -0.2423349783E-02       4    7    1        -0.1313447577E+00      0.2704019434E+00
          0                 3           2             4    7     1       0.1650210265E-03       4    7    1         0.9194129927E-02      0.1895524950E-01
          0                 4           1             4   13     1      -0.1890951332E-04       4   13    1        -0.1113343174E-02      0.2128702033E-02

    ------------------------------------------------
       NWT REQUIRED            4 OUTER ITERATIONS 
       AND A TOTAL OF          7 INNER ITERATIONS.
    ------------------------------------------------

 NO OUTPUT CONTROL FOR STRESS PERIOD   47   TIME STEP    8
 
 SOLVING FOR HEAD 
                                                   Max.-Head-Change                         Max.-Flux-Residual
  Residual-Control   Outer-Iter.   Inner-Iter.     Column Row Layer    Maximum-Head-Change  Column Row Layer    Maximum-Flux-Residual          L2-NORM 
          0                 1           2             4    7     1       0.2455083659E-01       4    7    1         0.1294444079E+01      0.2646586677E+01
          0                 2           2             4    7     1      -0.2388137870E-02       4    7    1        -0.1294451449E+00      0.2657457976E+00
          0                 3           2             4    7     1       0.1626232277E-03       4    7    1         0.9061157087E-02      0.1865419263E-01
          0                 4           1             4   13     1      -0.1898363685E-04       4   13    1        -0.1117477946E-02      0.2141767335E-02

    ------------------------------------------------
       NWT REQUIRED            4 OUTER ITERATIONS 
       AND A TOTAL OF          7 INNER ITERATIONS.
    ------------------------------------------------

 NO OUTPUT CONTROL FOR STRESS PERIOD   47   TIME STEP    9
 
 SOLVING FOR HEAD 
                                                   Max.-Head-Change                         Max.-Flux-Residual
  Residual-Control   Outer-Iter.   Inner-Iter.     Column Row Layer    Maximum-Head-Change  Column Row Layer    Maximum-Flux-Residual          L2-NORM 
          0                 1           2             4    7     1       0.2419255516E-01       4    7    1         0.1275631128E+01      0.2602156763E+01
          0                 2           2             4    7     1      -0.2353286671E-02       4    7    1        -0.1275638376E+00      0.2612592318E+00
          0                 3           2             4    7     1       0.1602499923E-03       4    7    1         0.8929465642E-02      0.1836391276E-01
          0                 4           1             4   13     1      -0.1904416776E-04       4   13    1        -0.1121274216E-02      0.2131161920E-02

    ------------------------------------------------
       NWT REQUIRED            4 OUTER ITERATIONS 
       AND A TOTAL OF          7 INNER ITERATIONS.
    ------------------------------------------------

 NO OUTPUT CONTROL FOR STRESS PERIOD   47   TIME STEP   10
 
 SOLVING FOR HEAD 
                                                   Max.-Head-Change                         Max.-Flux-Residual
  Residual-Control   Outer-Iter.   Inner-Iter.     Column Row Layer    Maximum-Head-Change  Column Row Layer    Maximum-Flux-Residual          L2-NORM 
          0                 1           2             4    7     1       0.2383841208E-01       4    7    1         0.1257025177E+01      0.2559001234E+01
          0                 2           2             4    7     1      -0.2318838015E-02       4    7    1        -0.1257032298E+00      0.2569101658E+00
          0                 3           2             4    7     1       0.1579041682E-03       4    7    1         0.8799223141E-02      0.1808295458E-01
          0                 4           1             4   13     1      -0.1916510308E-04       4   13    1        -0.1128382329E-02      0.2140483776E-02

    ------------------------------------------------
       NWT REQUIRED            4 OUTER ITERATIONS 
       AND A TOTAL OF          7 INNER ITERATIONS.
    ------------------------------------------------

 NO OUTPUT CONTROL FOR STRESS PERIOD   47   TIME STEP   11
 
 SOLVING FOR HEAD 
                                                   Max.-Head-Change                         Max.-Flux-Residual
  Residual-Control   Outer-Iter.   Inner-Iter.     Column Row Layer    Maximum-Head-Change  Column Row Layer    Maximum-Flux-Residual          L2-NORM 
          0                 1           2             4    7     1       0.2348825980E-01       4    7    1         0.1238619062E+01      0.2517056205E+01
          0                 2           2             4    7     1      -0.2284777738E-02       4    7    1        -0.1238626052E+00      0.2526879303E+00
          0                 3           2             4    7     1       0.1555847916E-03       4    7    1         0.8670379507E-02      0.1780847918E-01
          0                 4           1             4   13     1      -0.1925618070E-04       4   13    1        -0.1133754602E-02      0.2144319161E-02

    ------------------------------------------------
       NWT REQUIRED            4 OUTER ITERATIONS 
       AND A TOTAL OF          7 INNER ITERATIONS.
    ------------------------------------------------

 NO OUTPUT CONTROL FOR STRESS PERIOD   47   TIME STEP   12
 
 SOLVING FOR HEAD 
                                                   Max.-Head-Change                         Max.-Flux-Residual
  Residual-Control   Outer-Iter.   Inner-Iter.     Column Row Layer    Maximum-Head-Change  Column Row Layer    Maximum-Flux-Residual          L2-NORM 
          0                 1           2             4    7     1       0.2314235365E-01       4    7    1         0.1220427216E+01      0.2476256073E+01
          0                 2           2             4    7     1      -0.2251130114E-02       4    7    1        -0.1220434073E+00      0.2485704044E+00
          0                 3           2             4    7     1       0.1532935152E-03       4    7    1         0.8543035724E-02      0.1754220947E-01
          0                 4           1             4   13     1      -0.1934721136E-04       4   13    1        -0.1139122319E-02      0.2149195197E-02

    ------------------------------------------------
       NWT REQUIRED            4 OUTER ITERATIONS 
       AND A TOTAL OF          7 INNER ITERATIONS.
    ------------------------------------------------

 NO OUTPUT CONTROL FOR STRESS PERIOD   47   TIME STEP   13
 
 SOLVING FOR HEAD 
                                                   Max.-Head-Change                         Max.-Flux-Residual
  Residual-Control   Outer-Iter.   Inner-Iter.     Column Row Layer    Maximum-Head-Change  Column Row Layer    Maximum-Flux-Residual          L2-NORM 
          0                 1           2             4    7     1       0.2280065758E-01       4    7    1         0.1202448178E+01      0.2436555811E+01
          0                 2           2             4    7     1      -0.2217892201E-02       4    7    1        -0.1202454898E+00      0.2445704350E+00
          0                 3           2             4    7     1       0.1510301385E-03       4    7    1         0.8417181577E-02      0.1728408286E-01
          0                 4           1             4   13     1      -0.1944012585E-04       4   13    1        -0.1144583635E-02      0.2155199717E-02

    ------------------------------------------------
       NWT REQUIRED            4 OUTER ITERATIONS 
       AND A TOTAL OF          7 INNER ITERATIONS.
    ------------------------------------------------

 NO OUTPUT CONTROL FOR STRESS PERIOD   47   TIME STEP   14
 
 SOLVING FOR HEAD 
                                                   Max.-Head-Change                         Max.-Flux-Residual
  Residual-Control   Outer-Iter.   Inner-Iter.     Column Row Layer    Maximum-Head-Change  Column Row Layer    Maximum-Flux-Residual          L2-NORM 
          0                 1           2             4    7     1       0.2246353083E-01       4    7    1         0.1184702146E+01      0.2397921671E+01
          0                 2           2             4    7     1      -0.2185098755E-02       4    7    1        -0.1184708729E+00      0.2406790092E+00
          0                 3           2             4    7     1       0.1487970282E-03       4    7    1         0.8292958458E-02      0.1703276577E-01
          0                 4           1             4   13     1      -0.1953459073E-04       4   13    1        -0.1150140815E-02      0.2162728249E-02

    ------------------------------------------------
       NWT REQUIRED            4 OUTER ITERATIONS 
       AND A TOTAL OF          7 INNER ITERATIONS.
    ------------------------------------------------

 NO OUTPUT CONTROL FOR STRESS PERIOD   47   TIME STEP   15
 
 SOLVING FOR HEAD 
                                                   Max.-Head-Change                         Max.-Flux-Residual
  Residual-Control   Outer-Iter.   Inner-Iter.     Column Row Layer    Maximum-Head-Change  Column Row Layer    Maximum-Flux-Residual          L2-NORM 
          0                 1           2             4    7     1       0.2213089334E-01       4    7    1         0.1167185658E+01      0.2360296488E+01
          0                 2           2             4    7     1      -0.2152741991E-02       4    7    1        -0.1167192103E+00      0.2368903273E+00
          0                 3           2             4    7     1       0.1465936543E-03       4    7    1         0.8170342155E-02      0.1678909993E-01
          0                 4           1             4   13     1      -0.1966957070E-04       4   13    1        -0.1158110187E-02      0.2169460584E-02

    ------------------------------------------------
       NWT REQUIRED            4 OUTER ITERATIONS 
       AND A TOTAL OF          7 INNER ITERATIONS.
    ------------------------------------------------

 NO OUTPUT CONTROL FOR STRESS PERIOD   47   TIME STEP   16
 
 SOLVING FOR HEAD 
                                                   Max.-Head-Change                         Max.-Flux-Residual
  Residual-Control   Outer-Iter.   Inner-Iter.     Column Row Layer    Maximum-Head-Change  Column Row Layer    Maximum-Flux-Residual          L2-NORM 
          0                 1           2             4    7     1       0.2180267062E-01       4    7    1         0.1149894564E+01      0.2323654201E+01
          0                 2           2             4    7     1      -0.2120814664E-02       4    7    1        -0.1149900869E+00      0.2332015373E+00
          0                 3           2             4    7     1       0.1444195239E-03       4    7    1         0.8049303596E-02      0.1655229146E-01
          0                 4           1             4   13     1      -0.1976232937E-04       4   13    1        -0.1163553619E-02      0.2177166998E-02

    ------------------------------------------------
       NWT REQUIRED            4 OUTER ITERATIONS 
       AND A TOTAL OF          7 INNER ITERATIONS.
    ------------------------------------------------

 NO OUTPUT CONTROL FOR STRESS PERIOD   47   TIME STEP   17
 
 SOLVING FOR HEAD 
                                                   Max.-Head-Change                         Max.-Flux-Residual
  Residual-Control   Outer-Iter.   Inner-Iter.     Column Row Layer    Maximum-Head-Change  Column Row Layer    Maximum-Flux-Residual          L2-NORM 
          0                 1           2             4    7     1       0.2147917549E-01       4    7    1         0.1132847101E+01      0.2287941793E+01
          0                 2           2             4    7     1      -0.2089347202E-02       4    7    1        -0.1132853268E+00      0.2296072350E+00
          0                 3           2             4    7     1       0.1422767086E-03       4    7    1         0.7929970472E-02      0.1632202051E-01
          0                 4           1             4   13     1      -0.1986819953E-04       4   13    1        -0.1169791086E-02      0.2185000060E-02

    ------------------------------------------------
       NWT REQUIRED            4 OUTER ITERATIONS 
       AND A TOTAL OF          7 INNER ITERATIONS.
    ------------------------------------------------

 NO OUTPUT CONTROL FOR STRESS PERIOD   47   TIME STEP   18
 
 SOLVING FOR HEAD 
                                                   Max.-Head-Change                         Max.-Flux-Residual
  Residual-Control   Outer-Iter.   Inner-Iter.     Column Row Layer    Maximum-Head-Change  Column Row Layer    Maximum-Flux-Residual          L2-NORM 
          0                 1           2             4    7     1       0.2116030278E-01       4    7    1         0.1116037388E+01      0.2253131143E+01
          0                 2           2             4    7     1      -0.2058329375E-02       4    7    1        -0.1116043416E+00      0.2261045570E+00
          0                 3           2             4    7     1       0.1401645117E-03       4    7    1         0.7812301609E-02      0.1609812148E-01
          0                 4           1             4   13     1      -0.1998315369E-04       4   13    1        -0.1176573857E-02      0.2191807619E-02

    ------------------------------------------------
       NWT REQUIRED            4 OUTER ITERATIONS 
       AND A TOTAL OF          7 INNER ITERATIONS.
    ------------------------------------------------

 NO OUTPUT CONTROL FOR STRESS PERIOD   47   TIME STEP   19
 
 SOLVING FOR HEAD 
                                                   Max.-Head-Change                         Max.-Flux-Residual
  Residual-Control   Outer-Iter.   Inner-Iter.     Column Row Layer    Maximum-Head-Change  Column Row Layer    Maximum-Flux-Residual          L2-NORM 
          0                 1           2             4    7     1       0.2084607016E-01       4    7    1         0.1099467339E+01      0.2219186192E+01
          0                 2           2             4    7     1      -0.2027762905E-02       4    7    1        -0.1099473229E+00      0.2226899682E+00
          0                 3           2             4    7     1       0.1380830502E-03       4    7    1         0.7696310355E-02      0.1587996382E-01
          0                 4           1             4   13     1      -0.2008757807E-04       4   13    1        -0.1182730829E-02      0.2201392242E-02

    ------------------------------------------------
       NWT REQUIRED            4 OUTER ITERATIONS 
       AND A TOTAL OF          7 INNER ITERATIONS.
    ------------------------------------------------

 NO OUTPUT CONTROL FOR STRESS PERIOD   47   TIME STEP   20
 
 SOLVING FOR HEAD 
                                                   Max.-Head-Change                         Max.-Flux-Residual
  Residual-Control   Outer-Iter.   Inner-Iter.     Column Row Layer    Maximum-Head-Change  Column Row Layer    Maximum-Flux-Residual          L2-NORM 
          0                 1           2             4    7     1       0.2053662385E-01       4    7    1         0.1083145239E+01      0.2186069200E+01
          0                 2           2             4    7     1      -0.1997662013E-02       4    7    1        -0.1083150992E+00      0.2193592213E+00
          0                 3           2             4    7     1       0.1360332929E-03       4    7    1         0.7582054772E-02      0.1566885882E-01
          0                 4           1             4   13     1      -0.2020846461E-04       4   13    1        -0.1189845648E-02      0.2208825699E-02

    ------------------------------------------------
       NWT REQUIRED            4 OUTER ITERATIONS 
       AND A TOTAL OF          7 INNER ITERATIONS.
    ------------------------------------------------

 NO OUTPUT CONTROL FOR STRESS PERIOD   47   TIME STEP   21
 
 SOLVING FOR HEAD 
                                                   Max.-Head-Change                         Max.-Flux-Residual
  Residual-Control   Outer-Iter.   Inner-Iter.     Column Row Layer    Maximum-Head-Change  Column Row Layer    Maximum-Flux-Residual          L2-NORM 
          0                 1           2             4    7     1       0.2023169079E-01       4    7    1         0.1067056565E+01      0.2153758869E+01
          0                 2           2             4    7     1      -0.1968000138E-02       4    7    1        -0.1067062182E+00      0.2161107412E+00
          0                 3           2             4    7     1       0.1340134310E-03       4    7    1         0.7469433178E-02      0.1546212816E-01
          0                 4           1             4   13     1      -0.2032995123E-04       4   13    1        -0.1197001417E-02      0.2217787098E-02

    ------------------------------------------------
       NWT REQUIRED            4 OUTER ITERATIONS 
       AND A TOTAL OF          7 INNER ITERATIONS.
    ------------------------------------------------

 NO OUTPUT CONTROL FOR STRESS PERIOD   47   TIME STEP   22
 
 SOLVING FOR HEAD 
                                                   Max.-Head-Change                         Max.-Flux-Residual
  Residual-Control   Outer-Iter.   Inner-Iter.     Column Row Layer    Maximum-Head-Change  Column Row Layer    Maximum-Flux-Residual          L2-NORM 
          0                 1           2             4    7     1       0.1993168651E-01       4    7    1         0.1051224000E+01      0.2122231654E+01
          0                 2           2             4    7     1      -0.1938817703E-02       4    7    1        -0.1051229482E+00      0.2129415008E+00
          0                 3           2             4    7     1       0.1320262178E-03       4    7    1         0.7358604372E-02      0.1526181731E-01
          0                 4           1             4   13     1      -0.2042177199E-04       4   13    1        -0.1202403980E-02      0.2225073369E-02

    ------------------------------------------------
       NWT REQUIRED            4 OUTER ITERATIONS 
       AND A TOTAL OF          7 INNER ITERATIONS.
    ------------------------------------------------

 NO OUTPUT CONTROL FOR STRESS PERIOD   47   TIME STEP   23
 
 SOLVING FOR HEAD 
                                                   Max.-Head-Change                         Max.-Flux-Residual
  Residual-Control   Outer-Iter.   Inner-Iter.     Column Row Layer    Maximum-Head-Change  Column Row Layer    Maximum-Flux-Residual          L2-NORM 
          0                 1           2             4    7     1       0.1963630729E-01       4    7    1         0.1035632248E+01      0.2091439589E+01
          0                 2           2             4    7     1      -0.1910085162E-02       4    7    1        -0.1035637597E+00      0.2098469656E+00
          0                 3           1             4    7     1       0.1300696405E-03       4    7    1         0.7249461263E-02      0.1506639478E-01
          0                 4           1             4   13     1      -0.2054163839E-04       4   13    1        -0.1209461842E-02      0.2234562572E-02

    ------------------------------------------------
       NWT REQUIRED            4 OUTER ITERATIONS 
       AND A TOTAL OF          6 INNER ITERATIONS.
    ------------------------------------------------

 NO OUTPUT CONTROL FOR STRESS PERIOD   47   TIME STEP   24
 
 SOLVING FOR HEAD 
                                                   Max.-Head-Change                         Max.-Flux-Residual
  Residual-Control   Outer-Iter.   Inner-Iter.     Column Row Layer    Maximum-Head-Change  Column Row Layer    Maximum-Flux-Residual          L2-NORM 
          0                 1           2             4    7     1       0.1934554103E-01       4    7    1         0.1020280297E+01      0.2061372440E+01
          0                 2           2             4    7     1      -0.1881801339E-02       4    7    1        -0.1020285515E+00      0.2068257105E+00
          0                 3           1             4    7     1       0.1281436191E-03       4    7    1         0.7141996751E-02      0.1487649364E-01
          0                 4           1             4   13     1      -0.2067464475E-04       4   13    1        -0.1217306814E-02      0.2244117153E-02

    ------------------------------------------------
       NWT REQUIRED            4 OUTER ITERATIONS 
       AND A TOTAL OF          6 INNER ITERATIONS.
    ------------------------------------------------

 NO OUTPUT CONTROL FOR STRESS PERIOD   47   TIME STEP   25
 
 SOLVING FOR HEAD 
                                                   Max.-Head-Change                         Max.-Flux-Residual
  Residual-Control   Outer-Iter.   Inner-Iter.     Column Row Layer    Maximum-Head-Change  Column Row Layer    Maximum-Flux-Residual          L2-NORM 
          0                 1           2             4    7     1       0.1905949899E-01       4    7    1         0.1005174890E+01      0.2032005664E+01
          0                 2           2             4    7     1      -0.1853977056E-02       4    7    1        -0.1005179978E+00      0.2038755189E+00
          0                 3           1             4    7     1       0.1262488904E-03       4    7    1         0.7036258078E-02      0.1469082238E-01
          0                 4           1             4   13     1      -0.2078556559E-04       4   13    1        -0.1223921590E-02      0.2253712595E-02

    ------------------------------------------------
       NWT REQUIRED            4 OUTER ITERATIONS 
       AND A TOTAL OF          6 INNER ITERATIONS.
    ------------------------------------------------

 NO OUTPUT CONTROL FOR STRESS PERIOD   47   TIME STEP   26
 
 SOLVING FOR HEAD 
                                                   Max.-Head-Change                         Max.-Flux-Residual
  Residual-Control   Outer-Iter.   Inner-Iter.     Column Row Layer    Maximum-Head-Change  Column Row Layer    Maximum-Flux-Residual          L2-NORM 
          0                 1           2             4    7     1       0.1877814829E-01       4    7    1         0.9903144259E+00      0.2003313513E+01
          0                 2           2             4    7     1      -0.1826609116E-02       4    7    1        -0.9903193873E-01      0.2009937590E+00
          0                 3           1             4    7     1       0.1243852369E-03       4    7    1         0.6932234016E-02      0.1451033111E-01
          0                 4           1             4   13     1      -0.2090446963E-04       4   13    1        -0.1230931765E-02      0.2262057130E-02

    ------------------------------------------------
       NWT REQUIRED            4 OUTER ITERATIONS 
       AND A TOTAL OF          6 INNER ITERATIONS.
    ------------------------------------------------

 NO OUTPUT CONTROL FOR STRESS PERIOD   47   TIME STEP   27
 
 SOLVING FOR HEAD 
                                                   Max.-Head-Change                         Max.-Flux-Residual
  Residual-Control   Outer-Iter.   Inner-Iter.     Column Row Layer    Maximum-Head-Change  Column Row Layer    Maximum-Flux-Residual          L2-NORM 
          0                 1           2             4    7     1       0.1850144963E-01       4    7    1         0.9756972017E+00      0.1975275403E+01
          0                 2           2             4    7     1      -0.1799693697E-02       4    7    1        -0.9757020381E-01      0.1981781271E+00
          0                 3           1             4    7     1       0.1225523986E-03       4    7    1         0.6829912647E-02      0.1433377091E-01
          0                 4           1             4   13     1      -0.2099612702E-04       4   13    1        -0.1236336849E-02      0.2275008574E-02

    ------------------------------------------------
       NWT REQUIRED            4 OUTER ITERATIONS 
       AND A TOTAL OF          6 INNER ITERATIONS.
    ------------------------------------------------

 NO OUTPUT CONTROL FOR STRESS PERIOD   47   TIME STEP   28
 
 SOLVING FOR HEAD 
                                                   Max.-Head-Change                         Max.-Flux-Residual
  Residual-Control   Outer-Iter.   Inner-Iter.     Column Row Layer    Maximum-Head-Change  Column Row Layer    Maximum-Flux-Residual          L2-NORM 
          0                 1           2             4    7     1       0.1822922476E-01       4    7    1         0.9613138077E+00      0.1947862069E+01
          0                 2           2             4    7     1      -0.1773213458E-02       4    7    1        -0.9613185214E-01      0.1954258679E+00
          0                 3           1             4    7     1       0.1207491943E-03       4    7    1         0.6729228100E-02      0.1416409341E-01
          0                 4           1             4   13     1      -0.2113655083E-04       4   13    1        -0.1244620603E-02      0.2281189228E-02

    ------------------------------------------------
       NWT REQUIRED            4 OUTER ITERATIONS 
       AND A TOTAL OF          6 INNER ITERATIONS.
    ------------------------------------------------

 NO OUTPUT CONTROL FOR STRESS PERIOD   47   TIME STEP   29
 
 SOLVING FOR HEAD 
                                                   Max.-Head-Change                         Max.-Flux-Residual
  Residual-Control   Outer-Iter.   Inner-Iter.     Column Row Layer    Maximum-Head-Change  Column Row Layer    Maximum-Flux-Residual          L2-NORM 
          0                 1           2             4    7     1       0.1796169722E-01       4    7    1         0.9471771142E+00      0.1921784908E+01
          0                 2           2             4    7     1      -0.1747190145E-02       4    7    1        -0.9471817074E-01      0.1926748135E+00
          0                 3           1             4    7     1       0.1189771049E-03       4    7    1         0.6630270471E-02      0.1404240701E-01
          0                 4           1             4   13     1      -0.2113534287E-04       4   13    1        -0.1244468300E-02      0.2280625926E-02

    ------------------------------------------------
       NWT REQUIRED            4 OUTER ITERATIONS 
       AND A TOTAL OF          6 INNER ITERATIONS.
    ------------------------------------------------

 NO OUTPUT CONTROL FOR STRESS PERIOD   47   TIME STEP   30



 STREAM LISTING     PERIOD     47   STEP       30

 LAYER ROW COL. STREAM  RCH.  FLOW INTO     FLOW TO   FLOW OUT OF   OVRLND.     DIRECT     STREAM       STREAM     STREAM     STREAM   STREAMBED  STREAMBED
                SEG.NO.  NO.  STRM. RCH.    AQUIFER    STRM. RCH.    RUNOFF     PRECIP       ET          HEAD       DEPTH      WIDTH   CONDCTNC.   GRADIENT

   1    1    1     1     1    1.5942E+01  1.9373E-01   1.5748E+01  0.000E+00  0.000E+00  0.000E+00  1.09408E+03  1.028E+00  1.069E+01  4.809E-02  1.343E+00
   1    2    2     1     2    1.5748E+01  2.9868E-01   1.5450E+01  0.000E+00  0.000E+00  0.000E+00  1.08908E+03  1.024E+00  1.060E+01  7.423E-02  1.341E+00
   1    3    3     1     3    1.5450E+01  2.5341E-01   1.5196E+01  0.000E+00  0.000E+00  0.000E+00  1.08344E+03  1.018E+00  1.051E+01  6.306E-02  1.339E+00
   1    3    4     1     4    1.5196E+01  2.3228E-01   1.4964E+01  0.000E+00  0.000E+00  0.000E+00  1.07842E+03  1.014E+00  1.043E+01  5.787E-02  1.338E+00
   1    4    5     2     1    1.2964E+01  2.9708E-01   1.2667E+01  0.000E+00  0.000E+00  0.000E+00  1.07274E+03  8.087E-01  1.200E+01  7.800E-02  1.270E+00
   1    5    6     2     2    1.2667E+01  2.2792E-01   1.2439E+01  0.000E+00  0.000E+00  0.000E+00  1.06731E+03  7.987E-01  1.200E+01  6.000E-02  1.266E+00
   1    6    6     2     3    1.2439E+01  2.2740E-01   1.2211E+01  0.000E+00  0.000E+00  0.000E+00  1.06258E+03  7.900E-01  1.200E+01  6.000E-02  1.263E+00
   1    7    6     2     4    1.2211E+01  2.2687E-01   1.1985E+01  0.000E+00  0.000E+00  0.000E+00  1.05786E+03  7.812E-01  1.200E+01  6.000E-02  1.260E+00
   1    8    6     2     5    1.1985E+01  2.2634E-01   1.1758E+01  0.000E+00  0.000E+00  0.000E+00  1.05313E+03  7.724E-01  1.200E+01  6.000E-02  1.257E+00
   1    3    5     3     1    2.0000E+00  2.8252E-01   1.7175E+00  0.000E+00  0.000E+00  0.000E+00  1.07555E+03  1.909E+00  9.636E+00  7.227E-02  1.955E+00
   1    3    6     3     2    1.7175E+00  2.4905E-01   1.4684E+00  0.000E+00  0.000E+00  0.000E+00  1.07264E+03  1.727E+00  8.909E+00  6.682E-02  1.864E+00
   1    3    7     3     3    1.4684E+00  1.9718E-01   1.2712E+00  0.000E+00  0.000E+00  0.000E+00  1.06987E+03  1.555E+00  8.218E+00  5.547E-02  1.777E+00
   1    4    8     3     4    1.2712E+00  2.2567E-01   1.0456E+00  0.000E+00  0.000E+00  0.000E+00  1.06682E+03  1.364E+00  7.455E+00  6.709E-02  1.682E+00
   1    5    8     3     5    1.0456E+00  1.5790E-01   8.8768E-01  0.000E+00  0.000E+00  0.000E+00  1.06362E+03  1.164E+00  6.655E+00  4.991E-02  1.582E+00
   1    6    8     3     6    8.8768E-01  5.5980E-02   8.3170E-01  0.000E+00  0.000E+00  0.000E+00  1.06158E+03  1.036E+00  6.145E+00  1.844E-02  1.518E+00
   1    5   10     4     1    1.0000E+01  9.0919E-02   9.9091E+00  0.000E+00  0.000E+00  0.000E+00  1.07836E+03  6.368E-01  1.000E+01  2.500E-02  1.212E+00
   1    5    9     4     2    9.9091E+00  1.8158E-01   9.7275E+00  0.000E+00  0.000E+00  0.000E+00  1.07154E+03  6.315E-01  1.000E+01  5.000E-02  1.211E+00
   1    6    8     4     3    9.7275E+00  1.2689E-01   9.6006E+00  0.000E+00  0.000E+00  0.000E+00  1.06381E+03  6.256E-01  1.000E+01  3.500E-02  1.209E+00
   1    6    8     5     1    1.0432E+01  2.2686E-01   1.0205E+01  0.000E+00  0.000E+00  0.000E+00  1.05868E+03  6.790E-01  1.542E+01  6.166E-02  1.226E+00
   1    7    7     5     2    1.0205E+01  2.7894E-01   9.9265E+00  0.000E+00  0.000E+00  0.000E+00  1.05417E+03  6.732E-01  1.519E+01  7.594E-02  1.224E+00
   1    8    7     5     3    9.9265E+00  1.9221E-01   9.7343E+00  0.000E+00  0.000E+00  0.000E+00  1.04992E+03  6.676E-01  1.497E+01  5.241E-02  1.223E+00
   1    8    6     5     4    9.7343E+00  1.3577E-01   9.5985E+00  0.000E+00  0.000E+00  0.000E+00  1.04691E+03  6.637E-01  1.482E+01  3.706E-02  1.221E+00
   1    9    6     6     1    2.0813E+01  2.4546E-01   2.0568E+01  0.000E+00  0.000E+00  0.000E+00  1.04382E+03  1.091E+00  1.200E+01  6.000E-02  1.364E+00
   1   10    7     6     2    2.0568E+01  2.4500E-01   2.0323E+01  0.000E+00  0.000E+00  0.000E+00  1.03927E+03  1.083E+00  1.200E+01  6.000E-02  1.361E+00
   1   11    7     6     3    2.0323E+01  2.4453E-01   2.0078E+01  0.000E+00  0.000E+00  0.000E+00  1.03471E+03  1.075E+00  1.200E+01  6.000E-02  1.358E+00
   1   12    7     6     4    2.0078E+01  2.4406E-01   1.9834E+01  0.000E+00  0.000E+00  0.000E+00  1.03016E+03  1.068E+00  1.200E+01  6.000E-02  1.356E+00
   1   13    7     6     5    1.9834E+01 -1.1654E-02   1.9846E+01  0.000E+00  0.000E+00  0.000E+00  1.02697E+03  1.064E+00  1.200E+01  2.400E-01 -1.619E-02
   1   14    9     7     1    1.5000E+02  1.3446E+00   1.4866E+02  0.000E+00  0.000E+00  0.000E+00  1.03987E+03  2.288E+00  5.529E+01  5.593E-01  8.014E-01
   1   13    8     7     2    1.4866E+02  1.8543E+00   1.4680E+02  0.000E+00  0.000E+00  0.000E+00  1.03478E+03  2.279E+00  5.526E+01  6.148E-01  1.005E+00
   1   13    7     7     3    1.4680E+02  1.4899E+00   1.4531E+02  0.000E+00  0.000E+00  0.000E+00  1.02969E+03  2.270E+00  5.522E+01  5.584E-01  8.893E-01
   1   13    6     8     1    1.6516E+02  9.0993E-01   1.6425E+02  0.000E+00  0.000E+00  0.000E+00  1.02479E+03  2.918E+00  4.230E+01  4.311E-01  7.036E-01
   1   13    5     8     2    1.6425E+02  1.6431E-01   1.6408E+02  0.000E+00  0.000E+00  0.000E+00  1.01854E+03  2.914E+00  4.225E+01  4.306E-01  1.272E-01
   1   13    4     8     3    1.6408E+02 -2.4813E+00   1.6656E+02  0.000E+00  0.000E+00  0.000E+00  1.01230E+03  2.922E+00  4.236E+01  4.317E+00 -1.916E-01
   1   13    3     8     4    1.6656E+02 -3.6572E+00   1.7022E+02  0.000E+00  0.000E+00  0.000E+00  1.00607E+03  2.942E+00  4.266E+01  4.347E+00 -2.804E-01
   1   13    2     8     5    1.7022E+02 -2.5672E+00   1.7279E+02  0.000E+00  0.000E+00  0.000E+00  9.99837E+02  2.962E+00  4.295E+01  4.377E+00 -1.955E-01
   1   13    1     8     6    1.7279E+02 -1.9611E+00   1.7475E+02  0.000E+00  0.000E+00  0.000E+00  9.94852E+02  2.977E+00  4.316E+01  2.639E+00 -2.477E-01
   1    8    6     9     1    5.4340E-01  0.0000E+00   5.4340E-01  0.000E+00  0.000E+00  0.000E+00  1.07913E+03  3.808E-01  4.000E+00  0.000E+00  1.127E+00
   1    8    5     9     2    5.4340E-01  0.0000E+00   5.4340E-01  0.000E+00  0.000E+00  0.000E+00  1.07863E+03  3.808E-01  4.000E+00  0.000E+00  1.127E+00





UNSATURATED ZONE PACKAGE VOLUMETRIC BUDGET FOR  TIME STEP    30 STRESS PERIOD   47
  ------------------------------------------------------------------------------



     CUMULATIVE VOLUMES      L**3       RATES FOR THIS TIME STEP      L**3/T
     ------------------                 ------------------------

           IN:                                      IN:
           ---                                      ---
        INFILTRATION =  2116507856.7429          INFILTRATION =           4.9509

          OUT:                                     OUT:
          ----                                     ----
              UZF ET =  1981851697.0647                UZF ET =           4.2142
        UZF RECHARGE =     1884068.5034          UZF RECHARGE =       0.0000E+00

            IN - OUT =   132772091.1749              IN - OUT =           0.7367

          STORAGE:                                 STORAGE:
          --------                                 --------
      STORAGE CHANGE =   132773932.3512        STORAGE CHANGE =           0.7367

 PERCENT DISCREPANCY IS DIFFERENCE BETWEEN IN-OUT MINUS CHANGE IN STORAGE
 DIVIDED BY THE AVERAGE OF IN AND OUT TIMES 100

 PERCENT DISCREPANCY =          -0.00     PERCENT DISCREPANCY =           0.00






1
  VOLUMETRIC BUDGET FOR AGRICULTURAL FIELDS AT TIME STEP   30, STRESS PERIOD  47
  ------------------------------------------------------------------------------

     CUMULATIVE VOLUMES      L**3       RATES FOR THIS TIME STEP      L**3/T
     ------------------                 ------------------------

           IN:                                      IN:
           ---                                      ---
               AG WELLS  =   350366144.0000                 AG WELLS  =           0.0000
      DIVERSION SEGMENTS =  1232828032.0000        DIVERSION SEGMENTS =           0.5434
           GW IRRIGATION =           0.0000             GW IRRIGATION =           0.0000
           SW IRRIGATION =           0.0000             SW IRRIGATION =           0.0000
        SYSTEM LOSSES GW =           0.0000          SYSTEM LOSSES GW =           0.0000
        SYSTEM LOSSES SW =           0.0000          SYSTEM LOSSES SW =           0.0000

                TOTAL IN =  1583194112.0000                  TOTAL IN =           0.5434

          OUT:                                     OUT:
          ----                                     ----
               AG WELLS  =           0.0000                 AG WELLS  =           0.0000
      DIVERSION SEGMENTS =           0.0000        DIVERSION SEGMENTS =           0.0000
           GW IRRIGATION =   350366144.0000             GW IRRIGATION =           0.0000
           SW IRRIGATION =  1232850688.0000             SW IRRIGATION =           0.5434
        SYSTEM LOSSES GW =           0.0000          SYSTEM LOSSES GW =           0.0000
        SYSTEM LOSSES SW =           0.0000          SYSTEM LOSSES SW =           0.0000

               TOTAL OUT =  1583216896.0000                 TOTAL OUT =           0.5434

                IN - OUT =      -22784.0000                  IN - OUT =      -1.0848E-05

     PERCENT DISCREPANCY =          -0.00         PERCENT DISCREPANCY =          -0.00



1
  VOLUMETRIC BUDGET FOR ENTIRE MODEL AT END OF TIME STEP   30, STRESS PERIOD  47
  ------------------------------------------------------------------------------

     CUMULATIVE VOLUMES      L**3       RATES FOR THIS TIME STEP      L**3/T
     ------------------                 ------------------------

           IN:                                      IN:
           ---                                      ---
             STORAGE     =   555545152.0000               STORAGE     =           4.4722
       CONSTANT HEAD     =           0.0000         CONSTANT HEAD     =           0.0000
     HEAD DEP BOUNDS     =    34615868.0000       HEAD DEP BOUNDS     =           0.2864
      STREAM LEAKAGE     =  1445281152.0000        STREAM LEAKAGE     =          11.3273
        UZF RECHARGE     =     1884068.8750          UZF RECHARGE     =           0.0000
               GW ET     =           0.0000                 GW ET     =           0.0000
     SURFACE LEAKAGE     =           0.0000       SURFACE LEAKAGE     =           0.0000
           AG WELLS      =           0.0000             AG WELLS      =           0.0000

                TOTAL IN =  2037326208.0000                  TOTAL IN =          16.0859

          OUT:                                     OUT:
          ----                                     ----
             STORAGE     =   339909920.0000               STORAGE     =           5.1185
       CONSTANT HEAD     =           0.0000         CONSTANT HEAD     =           0.0000
     HEAD DEP BOUNDS     =    35187268.0000       HEAD DEP BOUNDS     =           0.2886
      STREAM LEAKAGE     =  1307985664.0000        STREAM LEAKAGE     =          10.6784
        UZF RECHARGE     =           0.0000          UZF RECHARGE     =           0.0000
               GW ET     =     3813745.5000                 GW ET     =           0.0000
     SURFACE LEAKAGE     =           0.0000       SURFACE LEAKAGE     =           0.0000
           AG WELLS      =   350366144.0000             AG WELLS      =           0.0000

               TOTAL OUT =  2037262848.0000                 TOTAL OUT =          16.0855

                IN - OUT =       63360.0000                  IN - OUT =       3.7956E-04

     PERCENT DISCREPANCY =           0.00         PERCENT DISCREPANCY =           0.00






         TIME SUMMARY AT END OF TIME STEP   30 IN STRESS PERIOD   47
                    SECONDS     MINUTES      HOURS       DAYS        YEARS
                    -----------------------------------------------------------
   TIME STEP LENGTH  87667.      1461.1      24.352      1.0147     2.77799E-03
 STRESS PERIOD TIME 2.63000E+06  43833.      730.56      30.440     8.33397E-02
         TOTAL TIME 1.21065E+08 2.01775E+06  33629.      1401.2      3.8363    
1
1
                            STRESS PERIOD NO.   48, LENGTH =   2630000.    
                            -----------------------------------------------

                              NUMBER OF TIME STEPS =    30

                               MULTIPLIER FOR DELT =     1.000

                            INITIAL TIME STEP SIZE =   87666.66    

 REUSING NON-PARAMETER GHB CELLS FROM LAST STRESS PERIOD

      2 GHB CELLS

 REUSING STREAM SEGMENT DATA FROM LAST STRESS PERIOD



            AREAL INFILTRATION RATE
 READING ON UNIT   19 WITH FORMAT: (10F4.0)            

            1           2           3           4           5           6           7           8           9          10
 ........................................................................................................................
   1   1.2000E-09   0.000       0.000       0.000       0.000       0.000       0.000       0.000       0.000       0.000    
   2   2.1000E-09  2.0000E-09  8.0000E-10  8.5000E-09   0.000       0.000       0.000       0.000       0.000       0.000    
   3   5.0000E-10  1.1000E-09  8.8000E-09  5.5000E-09   0.000       0.000       0.000       0.000       0.000       0.000    
   4   8.5000E-09  1.1000E-09  1.1000E-09  1.1000E-09  2.0000E-09   0.000       0.000       0.000       0.000       0.000    
   5   8.5000E-09  1.1000E-09  1.1000E-09  1.1000E-09  1.1000E-09   0.000       0.000       0.000       0.000       0.000    
   6   8.5000E-09  5.2000E-09  2.1000E-09  1.1000E-09  1.5000E-09   0.000       0.000       0.000       0.000       0.000    
   7   8.5000E-09  5.2000E-09  2.1000E-09  1.2000E-09  2.0000E-09   0.000       0.000       0.000       0.000       0.000    
   8   5.0000E-10  5.2000E-09  2.1000E-09  1.2000E-09  5.0000E-09   0.000       0.000       0.000       0.000       0.000    
   9   5.0000E-10  5.2000E-09  2.1000E-09  1.2000E-09  5.0000E-09   0.000       0.000       0.000       0.000       0.000    
  10   5.0000E-10  5.2000E-09  2.1000E-09  1.2000E-09  5.8000E-09   0.000       0.000       0.000       0.000       0.000    
  11   1.0000E-10  1.1000E-09  1.1000E-09  1.2000E-09  5.0000E-09   0.000       0.000       0.000       0.000       0.000    
  12   1.1000E-09  1.1000E-09  1.1000E-09  1.1000E-09  2.0000E-09   0.000       0.000       0.000       0.000       0.000    
  13   1.1000E-09  2.2000E-09  2.2000E-09  2.1000E-09  1.0000E-09   0.000       0.000       0.000       0.000       0.000    
  14   2.0000E-10  5.5000E-09  5.5000E-09  5.2000E-09  1.0000E-09   0.000       0.000       0.000       0.000       0.000    
  15    0.000      8.8000E-09  8.8000E-09   0.000       0.000       0.000       0.000       0.000       0.000       0.000    

                  ET RATE =  5.000000E-10

 USING ET EXTINCTION DEPTH FROM PREVIOUS STRESS PERIOD. CURRENT PERIOD IS:      48

 USING EXTINCTION WATER CONTENT FROM PREVIOUS STRESS PERIOD. CURRENT PERIOD IS:      48

 USING AIR ENTRY PRESSURE FROM PREVIOUS STRESS PERIOD. CURRENT PERIOD IS:      48

 USING ROOT PRESSURE HEAD FROM PREVIOUS STRESS PERIOD. CURRENT PERIOD IS:      48

 USING ROOT ACTIVITY FROM PREVIOUS STRESS PERIOD. CURRENT PERIOD IS:      48

 PROCESSING AG STRESS PERIOD DATA

 READING AG STRESS PERIOD DATA

 READING IRRIGATION SEGMENT

 READING IRRIGATION WELL

 READING SUPPLEMENTAL WELL

 END PROCESSING AG STRESS PERIOD DATA OPTIONS
 
 SOLVING FOR HEAD 
                                                   Max.-Head-Change                         Max.-Flux-Residual
  Residual-Control   Outer-Iter.   Inner-Iter.     Column Row Layer    Maximum-Head-Change  Column Row Layer    Maximum-Flux-Residual          L2-NORM 
          0                 1           2             4    7     1       0.1769853978E-01       4    7    1         0.9332692283E+00      0.1895919288E+01
          0                 2           2             4    7     1      -0.1721591923E-02       4    7    1        -0.9332737033E-01      0.1895918461E+00
          0                 3           1             4    7     1       0.1172339642E-03       4    7    1         0.6532914523E-02      0.1327138510E-01
          0                 4           1             4    7     1      -0.4664850404E-05       4    7    1        -0.2671966013E-03      0.5428022351E-03

    ------------------------------------------------
       NWT REQUIRED            4 OUTER ITERATIONS 
       AND A TOTAL OF          6 INNER ITERATIONS.
    ------------------------------------------------

 NO OUTPUT CONTROL FOR STRESS PERIOD   48   TIME STEP    1
 
 SOLVING FOR HEAD 
                                                   Max.-Head-Change                         Max.-Flux-Residual
  Residual-Control   Outer-Iter.   Inner-Iter.     Column Row Layer    Maximum-Head-Change  Column Row Layer    Maximum-Flux-Residual          L2-NORM 
          0                 1           2             4    7     1       0.1743997912E-01       4    7    1         0.9196026682E+00      0.1870284664E+01
          0                 2           2             4    7     1      -0.1696440851E-02       4    7    1        -0.9196070278E-01      0.1870284464E+00
          0                 3           1             4    7     1       0.1155212707E-03       4    7    1         0.6437247855E-02      0.1309195759E-01
          0                 4           1             4    7     1      -0.4596700506E-05       4    7    1        -0.2632838109E-03      0.5354536047E-03

    ------------------------------------------------
       NWT REQUIRED            4 OUTER ITERATIONS 
       AND A TOTAL OF          6 INNER ITERATIONS.
    ------------------------------------------------

 NO OUTPUT CONTROL FOR STRESS PERIOD   48   TIME STEP    2
 
 SOLVING FOR HEAD 
                                                   Max.-Head-Change                         Max.-Flux-Residual
  Residual-Control   Outer-Iter.   Inner-Iter.     Column Row Layer    Maximum-Head-Change  Column Row Layer    Maximum-Flux-Residual          L2-NORM 
          0                 1           2             4    7     1       0.1718582181E-01       4    7    1         0.9061670731E+00      0.1845215335E+01
          0                 2           2             4    7     1      -0.1671718107E-02       4    7    1        -0.9061713193E-01      0.1845215675E+00
          0                 3           1             4    7     1       0.1138377454E-03       4    7    1         0.6343197960E-02      0.1291647781E-01
          0                 4           1             4    7     1      -0.4529711785E-05       4    7    1        -0.2594371808E-03      0.5282844485E-03

    ------------------------------------------------
       NWT REQUIRED            4 OUTER ITERATIONS 
       AND A TOTAL OF          6 INNER ITERATIONS.
    ------------------------------------------------

 NO OUTPUT CONTROL FOR STRESS PERIOD   48   TIME STEP    3
 
 SOLVING FOR HEAD 
                                                   Max.-Head-Change                         Max.-Flux-Residual
  Residual-Control   Outer-Iter.   Inner-Iter.     Column Row Layer    Maximum-Head-Change  Column Row Layer    Maximum-Flux-Residual          L2-NORM 
          0                 1           2             4    7     1       0.1693600617E-01       4    7    1         0.8929597854E+00      0.1820669004E+01
          0                 2           2             4    7     1      -0.1647417694E-02       4    7    1        -0.8929639210E-01      0.1820669778E+00
          0                 3           1             4    7     1       0.1121829790E-03       4    7    1         0.6250746239E-02      0.1274467160E-01
          0                 4           1             4    7     1      -0.4463867086E-05       4    7    1        -0.2556558993E-03      0.5212630949E-03

    ------------------------------------------------
       NWT REQUIRED            4 OUTER ITERATIONS 
       AND A TOTAL OF          6 INNER ITERATIONS.
    ------------------------------------------------

 NO OUTPUT CONTROL FOR STRESS PERIOD   48   TIME STEP    4
 
 SOLVING FOR HEAD 
                                                   Max.-Head-Change                         Max.-Flux-Residual
  Residual-Control   Outer-Iter.   Inner-Iter.     Column Row Layer    Maximum-Head-Change  Column Row Layer    Maximum-Flux-Residual          L2-NORM 
          0                 1           2             4    7     1       0.1669047786E-01       4    7    1         0.8799776065E+00      0.1796647010E+01
          0                 2           2             4    7     1      -0.1623534324E-02       4    7    1        -0.8799816339E-01      0.1796648155E+00
          0                 3           1             4    7     1       0.1105566114E-03       4    7    1         0.6159870282E-02      0.1257652130E-01
          0                 4           1             4    7     1      -0.4399152135E-05       4    7    1        -0.2519390573E-03      0.5143767222E-03

    ------------------------------------------------
       NWT REQUIRED            4 OUTER ITERATIONS 
       AND A TOTAL OF          6 INNER ITERATIONS.
    ------------------------------------------------

 NO OUTPUT CONTROL FOR STRESS PERIOD   48   TIME STEP    5
 
 SOLVING FOR HEAD 
                                                   Max.-Head-Change                         Max.-Flux-Residual
  Residual-Control   Outer-Iter.   Inner-Iter.     Column Row Layer    Maximum-Head-Change  Column Row Layer    Maximum-Flux-Residual          L2-NORM 
          0                 1           2             4    7     1       0.1644931042E-01       4    7    1         0.8672250924E+00      0.1773138328E+01
          0                 2           2             4    7     1      -0.1600075152E-02       4    7    1        -0.8672290140E-01      0.1773139667E+00
          0                 3           1             4    7     1       0.1089591308E-03       4    7    1         0.6070602021E-02      0.1241195100E-01
          0                 4           1             4    7     1      -0.4335587309E-05       4    7    1        -0.2482879956E-03      0.5076451657E-03

    ------------------------------------------------
       NWT REQUIRED            4 OUTER ITERATIONS 
       AND A TOTAL OF          6 INNER ITERATIONS.
    ------------------------------------------------

 NO OUTPUT CONTROL FOR STRESS PERIOD   48   TIME STEP    6
 
 SOLVING FOR HEAD 
                                                   Max.-Head-Change                         Max.-Flux-Residual
  Residual-Control   Outer-Iter.   Inner-Iter.     Column Row Layer    Maximum-Head-Change  Column Row Layer    Maximum-Flux-Residual          L2-NORM 
          0                 1           2             4    7     1       0.1621230022E-01       4    7    1         0.8546913103E+00      0.1750112170E+01
          0                 2           2             4    7     1      -0.1577020369E-02       4    7    1        -0.8546951287E-01      0.1750113848E+00
          0                 3           1             4    7     1       0.1073891865E-03       4    7    1         0.5982864861E-02      0.1225078633E-01
          0                 4           1             4    7     1      -0.4273117576E-05       4    7    1        -0.2446995293E-03      0.5010588631E-03

    ------------------------------------------------
       NWT REQUIRED            4 OUTER ITERATIONS 
       AND A TOTAL OF          6 INNER ITERATIONS.
    ------------------------------------------------

 NO OUTPUT CONTROL FOR STRESS PERIOD   48   TIME STEP    7
 
 SOLVING FOR HEAD 
                                                   Max.-Head-Change                         Max.-Flux-Residual
  Residual-Control   Outer-Iter.   Inner-Iter.     Column Row Layer    Maximum-Head-Change  Column Row Layer    Maximum-Flux-Residual          L2-NORM 
          0                 1           2             4    7     1       0.1597939018E-01       4    7    1         0.8423730749E+00      0.1727567977E+01
          0                 2           2             4    7     1      -0.1554364425E-02       4    7    1        -0.8423767925E-01      0.1727549954E+00
          0                 3           1             4    7     1       0.1058464023E-03       4    7    1         0.5896636576E-02      0.1209283527E-01
          0                 4           1             4    7     1      -0.4211728777E-05       4    7    1        -0.2411727846E-03      0.4945975590E-03

    ------------------------------------------------
       NWT REQUIRED            4 OUTER ITERATIONS 
       AND A TOTAL OF          6 INNER ITERATIONS.
    ------------------------------------------------

 NO OUTPUT CONTROL FOR STRESS PERIOD   48   TIME STEP    8
 
 SOLVING FOR HEAD 
                                                   Max.-Head-Change                         Max.-Flux-Residual
  Residual-Control   Outer-Iter.   Inner-Iter.     Column Row Layer    Maximum-Head-Change  Column Row Layer    Maximum-Flux-Residual          L2-NORM 
          0                 1           2             4    7     1       0.1575064593E-01       4    7    1         0.8302748011E+00      0.1705486134E+01
          0                 2           2             4    7     1      -0.1532113701E-02       4    7    1        -0.8302784204E-01      0.1705488169E+00
          0                 3           1             4    7     1       0.1043312118E-03       4    7    1         0.5811948026E-02      0.1193841664E-01
          0                 4           1             4    7     1      -0.4151437949E-05       4    7    1        -0.2377090116E-03      0.4882807829E-03

    ------------------------------------------------
       NWT REQUIRED            4 OUTER ITERATIONS 
       AND A TOTAL OF          6 INNER ITERATIONS.
    ------------------------------------------------

 NO OUTPUT CONTROL FOR STRESS PERIOD   48   TIME STEP    9
 
 SOLVING FOR HEAD 
                                                   Max.-Head-Change                         Max.-Flux-Residual
  Residual-Control   Outer-Iter.   Inner-Iter.     Column Row Layer    Maximum-Head-Change  Column Row Layer    Maximum-Flux-Residual          L2-NORM 
          0                 1           2             4    7     1       0.1552600368E-01       4    7    1         0.8183925170E+00      0.1683860433E+01
          0                 2           2             4    7     1      -0.1510261995E-02       4    7    1        -0.8183960403E-01      0.1683862651E+00
          0                 3           1             4    7     1       0.1028431936E-03       4    7    1         0.5728771434E-02      0.1178704628E-01
          0                 4           1             4    7     1      -0.4092228745E-05       4    7    1        -0.2343071096E-03      0.4820890043E-03

    ------------------------------------------------
       NWT REQUIRED            4 OUTER ITERATIONS 
       AND A TOTAL OF          6 INNER ITERATIONS.
    ------------------------------------------------

 NO OUTPUT CONTROL FOR STRESS PERIOD   48   TIME STEP   10
 
 SOLVING FOR HEAD 
                                                   Max.-Head-Change                         Max.-Flux-Residual
  Residual-Control   Outer-Iter.   Inner-Iter.     Column Row Layer    Maximum-Head-Change  Column Row Layer    Maximum-Flux-Residual          L2-NORM 
          0                 1           2             4    7     1       0.1530525362E-01       4    7    1         0.8067155431E+00      0.1662666323E+01
          0                 2           2             4    7     1      -0.1488788894E-02       4    7    1        -0.8067189727E-01      0.1662668580E+00
          0                 3           1             4    7     1       0.1013809562E-03       4    7    1         0.5647032013E-02      0.1163867792E-01
          0                 4           1             4    7     1      -0.4034044522E-05       4    7    1        -0.2309639451E-03      0.4760232333E-03

    ------------------------------------------------
       NWT REQUIRED            4 OUTER ITERATIONS 
       AND A TOTAL OF          6 INNER ITERATIONS.
    ------------------------------------------------

 NO OUTPUT CONTROL FOR STRESS PERIOD   48   TIME STEP   11
 
 SOLVING FOR HEAD 
                                                   Max.-Head-Change                         Max.-Flux-Residual
  Residual-Control   Outer-Iter.   Inner-Iter.     Column Row Layer    Maximum-Head-Change  Column Row Layer    Maximum-Flux-Residual          L2-NORM 
          0                 1           2             4    7     1       0.1508846773E-01       4    7    1         0.7952477471E+00      0.1641893547E+01
          0                 2           2             4    7     1      -0.1467701404E-02       4    7    1        -0.7952510858E-01      0.1641895829E+00
          0                 3           1             4    7     1       0.9994497721E-04       4    7    1         0.5566756838E-02      0.1149326900E-01

    ------------------------------------------------
       NWT REQUIRED            3 OUTER ITERATIONS 
       AND A TOTAL OF          5 INNER ITERATIONS.
    ------------------------------------------------

 NO OUTPUT CONTROL FOR STRESS PERIOD   48   TIME STEP   12
 
 SOLVING FOR HEAD 
                                                   Max.-Head-Change                         Max.-Flux-Residual
  Residual-Control   Outer-Iter.   Inner-Iter.     Column Row Layer    Maximum-Head-Change  Column Row Layer    Maximum-Flux-Residual          L2-NORM 
          0                 1           2             4    7     1       0.1487550572E-01       4    7    1         0.7839817423E+00      0.1621537369E+01
          0                 2           2             4    7     1      -0.1446985876E-02       4    7    1        -0.7839849923E-01      0.1621539790E+00
          0                 3           1             4    7     1       0.9853432830E-04       4    7    1         0.5487894254E-02      0.1135078444E-01

    ------------------------------------------------
       NWT REQUIRED            3 OUTER ITERATIONS 
       AND A TOTAL OF          5 INNER ITERATIONS.
    ------------------------------------------------

 NO OUTPUT CONTROL FOR STRESS PERIOD   48   TIME STEP   13
 
 SOLVING FOR HEAD 
                                                   Max.-Head-Change                         Max.-Flux-Residual
  Residual-Control   Outer-Iter.   Inner-Iter.     Column Row Layer    Maximum-Head-Change  Column Row Layer    Maximum-Flux-Residual          L2-NORM 
          0                 1           2             4    7     1       0.1466623632E-01       4    7    1         0.7729104369E+00      0.1601581732E+01
          0                 2           2             4    7     1      -0.1426629542E-02       4    7    1        -0.7729136003E-01      0.1601584069E+00
          0                 3           1             4    7     1       0.9714813851E-04       4    7    1         0.5410394529E-02      0.1121109923E-01

    ------------------------------------------------
       NWT REQUIRED            3 OUTER ITERATIONS 
       AND A TOTAL OF          5 INNER ITERATIONS.
    ------------------------------------------------

 NO OUTPUT CONTROL FOR STRESS PERIOD   48   TIME STEP   14
 
 SOLVING FOR HEAD 
                                                   Max.-Head-Change                         Max.-Flux-Residual
  Residual-Control   Outer-Iter.   Inner-Iter.     Column Row Layer    Maximum-Head-Change  Column Row Layer    Maximum-Flux-Residual          L2-NORM 
          0                 1           2             4    7     1       0.1446086674E-01       4    7    1         0.7620453375E+00      0.1582021760E+01
          0                 2           2             4    7     1      -0.1406652558E-02       4    7    1        -0.7620484165E-01      0.1582024056E+00
          0                 3           1             4    7     1       0.9578778137E-04       4    7    1         0.5334338315E-02      0.1107417161E-01

    ------------------------------------------------
       NWT REQUIRED            3 OUTER ITERATIONS 
       AND A TOTAL OF          5 INNER ITERATIONS.
    ------------------------------------------------

 NO OUTPUT CONTROL FOR STRESS PERIOD   48   TIME STEP   15
 
 SOLVING FOR HEAD 
                                                   Max.-Head-Change                         Max.-Flux-Residual
  Residual-Control   Outer-Iter.   Inner-Iter.     Column Row Layer    Maximum-Head-Change  Column Row Layer    Maximum-Flux-Residual          L2-NORM 
          0                 1           2             4    7     1       0.1425905373E-01       4    7    1         0.7513676872E+00      0.1562838009E+01
          0                 2           2             4    7     1      -0.1387021533E-02       4    7    1        -0.7513706842E-01      0.1562840366E+00
          0                 3           1             4    7     1       0.9445098221E-04       4    7    1         0.5259594221E-02      0.1093988486E-01

    ------------------------------------------------
       NWT REQUIRED            3 OUTER ITERATIONS 
       AND A TOTAL OF          5 INNER ITERATIONS.
    ------------------------------------------------

 NO OUTPUT CONTROL FOR STRESS PERIOD   48   TIME STEP   16
 
 SOLVING FOR HEAD 
                                                   Max.-Head-Change                         Max.-Flux-Residual
  Residual-Control   Outer-Iter.   Inner-Iter.     Column Row Layer    Maximum-Head-Change  Column Row Layer    Maximum-Flux-Residual          L2-NORM 
          0                 1           2             4    7     1       0.1406099221E-01       4    7    1         0.7408891897E+00      0.1544028700E+01
          0                 2           2             4    7     1      -0.1367755430E-02       4    7    1        -0.7408921069E-01      0.1544030996E+00
          0                 3           1             4    7     1       0.9313903316E-04       4    7    1         0.5186244225E-02      0.1080822482E-01

    ------------------------------------------------
       NWT REQUIRED            3 OUTER ITERATIONS 
       AND A TOTAL OF          5 INNER ITERATIONS.
    ------------------------------------------------

 NO OUTPUT CONTROL FOR STRESS PERIOD   48   TIME STEP   17
 
 SOLVING FOR HEAD 
                                                   Max.-Head-Change                         Max.-Flux-Residual
  Residual-Control   Outer-Iter.   Inner-Iter.     Column Row Layer    Maximum-Head-Change  Column Row Layer    Maximum-Flux-Residual          L2-NORM 
          0                 1           2             4    7     1       0.1386634428E-01       4    7    1         0.7305904501E+00      0.1525572831E+01
          0                 2           2             4    7     1      -0.1348821380E-02       4    7    1        -0.7305932898E-01      0.1525575131E+00
          0                 3           1             4    7     1       0.9184969575E-04       4    7    1         0.5114152549E-02      0.1067903154E-01

    ------------------------------------------------
       NWT REQUIRED            3 OUTER ITERATIONS 
       AND A TOTAL OF          5 INNER ITERATIONS.
    ------------------------------------------------

 NO OUTPUT CONTROL FOR STRESS PERIOD   48   TIME STEP   18
 
 SOLVING FOR HEAD 
                                                   Max.-Head-Change                         Max.-Flux-Residual
  Residual-Control   Outer-Iter.   Inner-Iter.     Column Row Layer    Maximum-Head-Change  Column Row Layer    Maximum-Flux-Residual          L2-NORM 
          0                 1           2             4    7     1       0.1367532300E-01       4    7    1         0.7204834512E+00      0.1507486155E+01
          0                 2           2             4    7     1      -0.1330240107E-02       4    7    1        -0.7204862153E-01      0.1507488301E+00
          0                 3           1             4    7     1       0.9058438127E-04       4    7    1         0.5043403069E-02      0.1055241815E-01

    ------------------------------------------------
       NWT REQUIRED            3 OUTER ITERATIONS 
       AND A TOTAL OF          5 INNER ITERATIONS.
    ------------------------------------------------

 NO OUTPUT CONTROL FOR STRESS PERIOD   48   TIME STEP   19
 
 SOLVING FOR HEAD 
                                                   Max.-Head-Change                         Max.-Flux-Residual
  Residual-Control   Outer-Iter.   Inner-Iter.     Column Row Layer    Maximum-Head-Change  Column Row Layer    Maximum-Flux-Residual          L2-NORM 
          0                 1           2             4    7     1       0.1348771093E-01       4    7    1         0.7105571130E+00      0.1489727873E+01
          0                 2           2             4    7     1      -0.1311990460E-02       4    7    1        -0.7105598035E-01      0.1489730155E+00
          0                 3           1             4    7     1       0.8934164921E-04       4    7    1         0.4973918240E-02      0.1042811614E-01

    ------------------------------------------------
       NWT REQUIRED            3 OUTER ITERATIONS 
       AND A TOTAL OF          5 INNER ITERATIONS.
    ------------------------------------------------

 NO OUTPUT CONTROL FOR STRESS PERIOD   48   TIME STEP   20
 
 SOLVING FOR HEAD 
                                                   Max.-Head-Change                         Max.-Flux-Residual
  Residual-Control   Outer-Iter.   Inner-Iter.     Column Row Layer    Maximum-Head-Change  Column Row Layer    Maximum-Flux-Residual          L2-NORM 
          0                 1           2             4    7     1       0.1330344464E-01       4    7    1         0.7008075364E+00      0.1472312766E+01
          0                 2           2             4    7     1      -0.1294066269E-02       4    7    1        -0.7008101555E-01      0.1472314850E+00
          0                 3           1             4    7     1       0.8812107912E-04       4    7    1         0.4905670731E-02      0.1030620463E-01

    ------------------------------------------------
       NWT REQUIRED            3 OUTER ITERATIONS 
       AND A TOTAL OF          5 INNER ITERATIONS.
    ------------------------------------------------

 NO OUTPUT CONTROL FOR STRESS PERIOD   48   TIME STEP   21
 
 SOLVING FOR HEAD 
                                                   Max.-Head-Change                         Max.-Flux-Residual
  Residual-Control   Outer-Iter.   Inner-Iter.     Column Row Layer    Maximum-Head-Change  Column Row Layer    Maximum-Flux-Residual          L2-NORM 
          0                 1           2             4    7     1       0.1312245897E-01       4    7    1         0.6912314334E+00      0.1455217788E+01
          0                 2           2             4    7     1      -0.1276461195E-02       4    7    1        -0.6912339828E-01      0.1455219756E+00
          0                 3           1             4    7     1       0.8692223989E-04       4    7    1         0.4838637564E-02      0.1018654275E-01

    ------------------------------------------------
       NWT REQUIRED            3 OUTER ITERATIONS 
       AND A TOTAL OF          5 INNER ITERATIONS.
    ------------------------------------------------

 NO OUTPUT CONTROL FOR STRESS PERIOD   48   TIME STEP   22
 
 SOLVING FOR HEAD 
                                                   Max.-Head-Change                         Max.-Flux-Residual
  Residual-Control   Outer-Iter.   Inner-Iter.     Column Row Layer    Maximum-Head-Change  Column Row Layer    Maximum-Flux-Residual          L2-NORM 
          0                 1           2             4    7     1       0.1294468180E-01       4    7    1         0.6818254252E+00      0.1438434160E+01
          0                 2           2             4    7     1      -0.1259168225E-02       4    7    1        -0.6818279069E-01      0.1438436040E+00
          0                 3           1             4    7     1       0.8574465404E-04       4    7    1         0.4772795087E-02      0.1006905585E-01

    ------------------------------------------------
       NWT REQUIRED            3 OUTER ITERATIONS 
       AND A TOTAL OF          5 INNER ITERATIONS.
    ------------------------------------------------

 NO OUTPUT CONTROL FOR STRESS PERIOD   48   TIME STEP   23
 
 SOLVING FOR HEAD 
                                                   Max.-Head-Change                         Max.-Flux-Residual
  Residual-Control   Outer-Iter.   Inner-Iter.     Column Row Layer    Maximum-Head-Change  Column Row Layer    Maximum-Flux-Residual          L2-NORM 
          0                 1           2             4    7     1       0.1277019078E-01       4    7    1         0.6725931492E+00      0.1421974627E+01
          0                 2           2             4    7     1      -0.1242194910E-02       4    7    1        -0.6725955655E-01      0.1421976457E+00
          0                 3           1             4    7     1       0.8458883479E-04       4    7    1         0.4708168706E-02      0.9953835662E-02

    ------------------------------------------------
       NWT REQUIRED            3 OUTER ITERATIONS 
       AND A TOTAL OF          5 INNER ITERATIONS.
    ------------------------------------------------

 NO OUTPUT CONTROL FOR STRESS PERIOD   48   TIME STEP   24
 
 SOLVING FOR HEAD 
                                                   Max.-Head-Change                         Max.-Flux-Residual
  Residual-Control   Outer-Iter.   Inner-Iter.     Column Row Layer    Maximum-Head-Change  Column Row Layer    Maximum-Flux-Residual          L2-NORM 
          0                 1           2             4    7     1       0.1259877888E-01       4    7    1         0.6635238785E+00      0.1405810562E+01
          0                 2           2             4    7     1      -0.1225521111E-02       4    7    1        -0.6635262305E-01      0.1405812202E+00
          0                 3           1             4    7     1       0.8345341169E-04       4    7    1         0.4644683394E-02      0.9840687601E-02

    ------------------------------------------------
       NWT REQUIRED            3 OUTER ITERATIONS 
       AND A TOTAL OF          5 INNER ITERATIONS.
    ------------------------------------------------

 NO OUTPUT CONTROL FOR STRESS PERIOD   48   TIME STEP   25
 
 SOLVING FOR HEAD 
                                                   Max.-Head-Change                         Max.-Flux-Residual
  Residual-Control   Outer-Iter.   Inner-Iter.     Column Row Layer    Maximum-Head-Change  Column Row Layer    Maximum-Flux-Residual          L2-NORM 
          0                 1           2             4    7     1       0.1243051943E-01       4    7    1         0.6546216323E+00      0.1389942758E+01
          0                 2           2             4    7     1      -0.1209153962E-02       4    7    1        -0.6546239225E-01      0.1389944071E+00
          0                 3           1             4    7     1       0.8233887075E-04       4    7    1         0.4582367267E-02      0.9729587130E-02

    ------------------------------------------------
       NWT REQUIRED            3 OUTER ITERATIONS 
       AND A TOTAL OF          5 INNER ITERATIONS.
    ------------------------------------------------

 NO OUTPUT CONTROL FOR STRESS PERIOD   48   TIME STEP   26
 
 SOLVING FOR HEAD 
                                                   Max.-Head-Change                         Max.-Flux-Residual
  Residual-Control   Outer-Iter.   Inner-Iter.     Column Row Layer    Maximum-Head-Change  Column Row Layer    Maximum-Flux-Residual          L2-NORM 
          0                 1           2             4    7     1       0.1226520723E-01       4    7    1         0.6458754581E+00      0.1374354871E+01
          0                 2           2             4    7     1      -0.1193073504E-02       4    7    1        -0.6458776880E-01      0.1374356377E+00
          0                 3           1             4    7     1       0.8124385192E-04       4    7    1         0.4521143668E-02      0.9620494684E-02

    ------------------------------------------------
       NWT REQUIRED            3 OUTER ITERATIONS 
       AND A TOTAL OF          5 INNER ITERATIONS.
    ------------------------------------------------

 NO OUTPUT CONTROL FOR STRESS PERIOD   48   TIME STEP   27
 
 SOLVING FOR HEAD 
                                                   Max.-Head-Change                         Max.-Flux-Residual
  Residual-Control   Outer-Iter.   Inner-Iter.     Column Row Layer    Maximum-Head-Change  Column Row Layer    Maximum-Flux-Residual          L2-NORM 
          0                 1           2             4    7     1       0.1210291736E-01       4    7    1         0.6372894720E+00      0.1359053872E+01
          0                 2           2             4    7     1      -0.1177287039E-02       4    7    1        -0.6372916433E-01      0.1359055311E+00
          0                 3           1             4    7     1       0.8016885304E-04       4    7    1         0.4461041384E-02      0.9513390841E-02

    ------------------------------------------------
       NWT REQUIRED            3 OUTER ITERATIONS 
       AND A TOTAL OF          5 INNER ITERATIONS.
    ------------------------------------------------

 NO OUTPUT CONTROL FOR STRESS PERIOD   48   TIME STEP   28
 
 SOLVING FOR HEAD 
                                                   Max.-Head-Change                         Max.-Flux-Residual
  Residual-Control   Outer-Iter.   Inner-Iter.     Column Row Layer    Maximum-Head-Change  Column Row Layer    Maximum-Flux-Residual          L2-NORM 
          0                 1           2             4    7     1       0.1194345801E-01       4    7    1         0.6288528118E+00      0.1344038159E+01
          0                 2           2             4    7     1      -0.1161775907E-02       4    7    1        -0.6288549260E-01      0.1344039545E+00
          0                 3           1             4    7     1       0.7911260307E-04       4    7    1         0.4401984372E-02      0.9408273507E-02

    ------------------------------------------------
       NWT REQUIRED            3 OUTER ITERATIONS 
       AND A TOTAL OF          5 INNER ITERATIONS.
    ------------------------------------------------

 NO OUTPUT CONTROL FOR STRESS PERIOD   48   TIME STEP   29
 
 SOLVING FOR HEAD 
                                                   Max.-Head-Change                         Max.-Flux-Residual
  Residual-Control   Outer-Iter.   Inner-Iter.     Column Row Layer    Maximum-Head-Change  Column Row Layer    Maximum-Flux-Residual          L2-NORM 
          0                 1           2             4    7     1       0.1178689465E-01       4    7    1         0.6205702870E+00      0.1329271299E+01
          0                 2           2             4    7     1      -0.1146546481E-02       4    7    1        -0.6205723455E-01      0.1329272465E+00
          0                 3           1             4    7     1       0.7807553677E-04       4    7    1         0.4344006355E-02      0.9304903035E-02

    ------------------------------------------------
       NWT REQUIRED            3 OUTER ITERATIONS 
       AND A TOTAL OF          5 INNER ITERATIONS.
    ------------------------------------------------

 NO OUTPUT CONTROL FOR STRESS PERIOD   48   TIME STEP   30



 STREAM LISTING     PERIOD     48   STEP       30

 LAYER ROW COL. STREAM  RCH.  FLOW INTO     FLOW TO   FLOW OUT OF   OVRLND.     DIRECT     STREAM       STREAM     STREAM     STREAM   STREAMBED  STREAMBED
                SEG.NO.  NO.  STRM. RCH.    AQUIFER    STRM. RCH.    RUNOFF     PRECIP       ET          HEAD       DEPTH      WIDTH   CONDCTNC.   GRADIENT

   1    1    1     1     1    1.5750E+01  1.9239E-01   1.5557E+01  0.000E+00  0.000E+00  0.000E+00  1.09407E+03  1.025E+00  1.062E+01  4.780E-02  1.342E+00
   1    2    2     1     2    1.5557E+01  2.9659E-01   1.5261E+01  0.000E+00  0.000E+00  0.000E+00  1.08908E+03  1.020E+00  1.054E+01  7.378E-02  1.340E+00
   1    3    3     1     3    1.5261E+01  2.5163E-01   1.5009E+01  0.000E+00  0.000E+00  0.000E+00  1.08343E+03  1.015E+00  1.045E+01  6.268E-02  1.338E+00
   1    3    4     1     4    1.5009E+01  2.3063E-01   1.4778E+01  0.000E+00  0.000E+00  0.000E+00  1.07842E+03  1.010E+00  1.036E+01  5.751E-02  1.337E+00
   1    4    5     2     1    1.2778E+01  2.9653E-01   1.2482E+01  0.000E+00  0.000E+00  0.000E+00  1.07274E+03  8.017E-01  1.200E+01  7.800E-02  1.267E+00
   1    5    6     2     2    1.2482E+01  2.2750E-01   1.2254E+01  0.000E+00  0.000E+00  0.000E+00  1.06730E+03  7.916E-01  1.200E+01  6.000E-02  1.264E+00
   1    6    6     2     3    1.2254E+01  2.2697E-01   1.2027E+01  0.000E+00  0.000E+00  0.000E+00  1.06258E+03  7.829E-01  1.200E+01  6.000E-02  1.261E+00
   1    7    6     2     4    1.2027E+01  2.2644E-01   1.1801E+01  0.000E+00  0.000E+00  0.000E+00  1.05785E+03  7.741E-01  1.200E+01  6.000E-02  1.258E+00
   1    8    6     2     5    1.1801E+01  2.2591E-01   1.1575E+01  0.000E+00  0.000E+00  0.000E+00  1.05312E+03  7.652E-01  1.200E+01  6.000E-02  1.255E+00
   1    3    5     3     1    2.0000E+00  2.8252E-01   1.7175E+00  0.000E+00  0.000E+00  0.000E+00  1.07555E+03  1.909E+00  9.636E+00  7.227E-02  1.955E+00
   1    3    6     3     2    1.7175E+00  2.4905E-01   1.4684E+00  0.000E+00  0.000E+00  0.000E+00  1.07264E+03  1.727E+00  8.909E+00  6.682E-02  1.864E+00
   1    3    7     3     3    1.4684E+00  1.9718E-01   1.2712E+00  0.000E+00  0.000E+00  0.000E+00  1.06987E+03  1.555E+00  8.218E+00  5.547E-02  1.777E+00
   1    4    8     3     4    1.2712E+00  2.2567E-01   1.0456E+00  0.000E+00  0.000E+00  0.000E+00  1.06682E+03  1.364E+00  7.455E+00  6.709E-02  1.682E+00
   1    5    8     3     5    1.0456E+00  1.5790E-01   8.8768E-01  0.000E+00  0.000E+00  0.000E+00  1.06362E+03  1.164E+00  6.655E+00  4.991E-02  1.582E+00
   1    6    8     3     6    8.8768E-01  5.5980E-02   8.3170E-01  0.000E+00  0.000E+00  0.000E+00  1.06158E+03  1.036E+00  6.145E+00  1.844E-02  1.518E+00
   1    5   10     4     1    1.0000E+01  9.0919E-02   9.9091E+00  0.000E+00  0.000E+00  0.000E+00  1.07836E+03  6.368E-01  1.000E+01  2.500E-02  1.212E+00
   1    5    9     4     2    9.9091E+00  1.8158E-01   9.7275E+00  0.000E+00  0.000E+00  0.000E+00  1.07154E+03  6.315E-01  1.000E+01  5.000E-02  1.211E+00
   1    6    8     4     3    9.7275E+00  1.2689E-01   9.6006E+00  0.000E+00  0.000E+00  0.000E+00  1.06381E+03  6.256E-01  1.000E+01  3.500E-02  1.209E+00
   1    6    8     5     1    1.0432E+01  2.2686E-01   1.0205E+01  0.000E+00  0.000E+00  0.000E+00  1.05868E+03  6.790E-01  1.542E+01  6.166E-02  1.226E+00
   1    7    7     5     2    1.0205E+01  2.7894E-01   9.9265E+00  0.000E+00  0.000E+00  0.000E+00  1.05417E+03  6.732E-01  1.519E+01  7.594E-02  1.224E+00
   1    8    7     5     3    9.9265E+00  1.9221E-01   9.7343E+00  0.000E+00  0.000E+00  0.000E+00  1.04992E+03  6.676E-01  1.497E+01  5.241E-02  1.223E+00
   1    8    6     5     4    9.7343E+00  1.3577E-01   9.5985E+00  0.000E+00  0.000E+00  0.000E+00  1.04691E+03  6.637E-01  1.482E+01  3.706E-02  1.221E+00
   1    9    6     6     1    2.1173E+01  2.4608E-01   2.0927E+01  0.000E+00  0.000E+00  0.000E+00  1.04383E+03  1.101E+00  1.200E+01  6.000E-02  1.367E+00
   1   10    7     6     2    2.0927E+01  2.4562E-01   2.0682E+01  0.000E+00  0.000E+00  0.000E+00  1.03928E+03  1.094E+00  1.200E+01  6.000E-02  1.365E+00
   1   11    7     6     3    2.0682E+01  2.4515E-01   2.0437E+01  0.000E+00  0.000E+00  0.000E+00  1.03472E+03  1.086E+00  1.200E+01  6.000E-02  1.362E+00
   1   12    7     6     4    2.0437E+01  2.4468E-01   2.0192E+01  0.000E+00  0.000E+00  0.000E+00  1.03017E+03  1.078E+00  1.200E+01  6.000E-02  1.359E+00
   1   13    7     6     5    2.0192E+01 -9.6328E-03   2.0202E+01  0.000E+00  0.000E+00  0.000E+00  1.02698E+03  1.074E+00  1.200E+01  2.400E-01 -1.338E-02
   1   14    9     7     1    1.5000E+02  1.3451E+00   1.4865E+02  0.000E+00  0.000E+00  0.000E+00  1.03987E+03  2.288E+00  5.529E+01  5.593E-01  8.016E-01
   1   13    8     7     2    1.4865E+02  1.8544E+00   1.4680E+02  0.000E+00  0.000E+00  0.000E+00  1.03478E+03  2.279E+00  5.526E+01  6.148E-01  1.005E+00
   1   13    7     7     3    1.4680E+02  1.4888E+00   1.4531E+02  0.000E+00  0.000E+00  0.000E+00  1.02969E+03  2.270E+00  5.522E+01  5.584E-01  8.887E-01
   1   13    6     8     1    1.6551E+02  9.1296E-01   1.6460E+02  0.000E+00  0.000E+00  0.000E+00  1.02479E+03  2.920E+00  4.234E+01  4.314E-01  7.054E-01
   1   13    5     8     2    1.6460E+02  1.6779E-01   1.6443E+02  0.000E+00  0.000E+00  0.000E+00  1.01854E+03  2.916E+00  4.228E+01  4.309E-01  1.298E-01
   1   13    4     8     3    1.6443E+02 -2.4647E+00   1.6690E+02  0.000E+00  0.000E+00  0.000E+00  1.01230E+03  2.924E+00  4.239E+01  4.320E+00 -1.902E-01
   1   13    3     8     4    1.6690E+02 -3.6521E+00   1.7055E+02  0.000E+00  0.000E+00  0.000E+00  1.00607E+03  2.944E+00  4.269E+01  4.350E+00 -2.799E-01
   1   13    2     8     5    1.7055E+02 -2.5704E+00   1.7312E+02  0.000E+00  0.000E+00  0.000E+00  9.99839E+02  2.964E+00  4.298E+01  4.380E+00 -1.956E-01
   1   13    1     8     6    1.7312E+02 -1.9726E+00   1.7509E+02  0.000E+00  0.000E+00  0.000E+00  9.94854E+02  2.979E+00  4.319E+01  2.641E+00 -2.490E-01
   1    8    6     9     1    0.0000E+00  0.0000E+00   0.0000E+00  0.000E+00  0.000E+00  0.000E+00  1.07875E+03  0.000E+00  4.000E+00  0.000E+00  1.000E+00
   1    8    5     9     2    0.0000E+00  0.0000E+00   0.0000E+00  0.000E+00  0.000E+00  0.000E+00  1.07825E+03  0.000E+00  4.000E+00  0.000E+00  1.000E+00





UNSATURATED ZONE PACKAGE VOLUMETRIC BUDGET FOR  TIME STEP    30 STRESS PERIOD   48
  ------------------------------------------------------------------------------



     CUMULATIVE VOLUMES      L**3       RATES FOR THIS TIME STEP      L**3/T
     ------------------                 ------------------------

           IN:                                      IN:
           ---                                      ---
        INFILTRATION =  2128099581.3010          INFILTRATION =           4.4075

          OUT:                                     OUT:
          ----                                     ----
              UZF ET =  1983758449.3163                UZF ET =           0.7250
        UZF RECHARGE =     1884068.5034          UZF RECHARGE =       0.0000E+00

            IN - OUT =   142457063.4814              IN - OUT =           3.6825

          STORAGE:                                 STORAGE:
          --------                                 --------
      STORAGE CHANGE =   142458902.5164        STORAGE CHANGE =           3.6825

 PERCENT DISCREPANCY IS DIFFERENCE BETWEEN IN-OUT MINUS CHANGE IN STORAGE
 DIVIDED BY THE AVERAGE OF IN AND OUT TIMES 100

 PERCENT DISCREPANCY =          -0.00     PERCENT DISCREPANCY =           0.00






1
  VOLUMETRIC BUDGET FOR AGRICULTURAL FIELDS AT TIME STEP   30, STRESS PERIOD  48
  ------------------------------------------------------------------------------

     CUMULATIVE VOLUMES      L**3       RATES FOR THIS TIME STEP      L**3/T
     ------------------                 ------------------------

           IN:                                      IN:
           ---                                      ---
               AG WELLS  =   350366144.0000                 AG WELLS  =           0.0000
      DIVERSION SEGMENTS =  1232828032.0000        DIVERSION SEGMENTS =           0.0000
           GW IRRIGATION =           0.0000             GW IRRIGATION =           0.0000
           SW IRRIGATION =           0.0000             SW IRRIGATION =           0.0000
        SYSTEM LOSSES GW =           0.0000          SYSTEM LOSSES GW =           0.0000
        SYSTEM LOSSES SW =           0.0000          SYSTEM LOSSES SW =           0.0000

                TOTAL IN =  1583194112.0000                  TOTAL IN =           0.0000

          OUT:                                     OUT:
          ----                                     ----
               AG WELLS  =           0.0000                 AG WELLS  =           0.0000
      DIVERSION SEGMENTS =           0.0000        DIVERSION SEGMENTS =           0.0000
           GW IRRIGATION =   350366144.0000             GW IRRIGATION =           0.0000
           SW IRRIGATION =  1232850688.0000             SW IRRIGATION =           0.0000
        SYSTEM LOSSES GW =           0.0000          SYSTEM LOSSES GW =           0.0000
        SYSTEM LOSSES SW =           0.0000          SYSTEM LOSSES SW =           0.0000

               TOTAL OUT =  1583216896.0000                 TOTAL OUT =           0.0000

                IN - OUT =      -22784.0000                  IN - OUT =           0.0000

     PERCENT DISCREPANCY =          -0.00         PERCENT DISCREPANCY =           0.00



1
  VOLUMETRIC BUDGET FOR ENTIRE MODEL AT END OF TIME STEP   30, STRESS PERIOD  48
  ------------------------------------------------------------------------------

     CUMULATIVE VOLUMES      L**3       RATES FOR THIS TIME STEP      L**3/T
     ------------------                 ------------------------

           IN:                                      IN:
           ---                                      ---
             STORAGE     =   565673664.0000               STORAGE     =           3.3493
       CONSTANT HEAD     =           0.0000         CONSTANT HEAD     =           0.0000
     HEAD DEP BOUNDS     =    35369028.0000       HEAD DEP BOUNDS     =           0.2864
      STREAM LEAKAGE     =  1475063808.0000        STREAM LEAKAGE     =          11.3266
        UZF RECHARGE     =     1884068.8750          UZF RECHARGE     =           0.0000
               GW ET     =           0.0000                 GW ET     =           0.0000
     SURFACE LEAKAGE     =           0.0000       SURFACE LEAKAGE     =           0.0000
           AG WELLS      =           0.0000             AG WELLS      =           0.0000

                TOTAL IN =  2077990528.0000                  TOTAL IN =          14.9623

          OUT:                                     OUT:
          ----                                     ----
             STORAGE     =   351761376.0000               STORAGE     =           4.0043
       CONSTANT HEAD     =           0.0000         CONSTANT HEAD     =           0.0000
     HEAD DEP BOUNDS     =    35946676.0000       HEAD DEP BOUNDS     =           0.2888
      STREAM LEAKAGE     =  1336039424.0000        STREAM LEAKAGE     =          10.6694
        UZF RECHARGE     =           0.0000          UZF RECHARGE     =           0.0000
               GW ET     =     3813745.5000                 GW ET     =           0.0000
     SURFACE LEAKAGE     =           0.0000       SURFACE LEAKAGE     =           0.0000
           AG WELLS      =   350366144.0000             AG WELLS      =           0.0000

               TOTAL OUT =  2077927424.0000                 TOTAL OUT =          14.9625

                IN - OUT =       63104.0000                  IN - OUT =      -1.8311E-04

     PERCENT DISCREPANCY =           0.00         PERCENT DISCREPANCY =          -0.00






         TIME SUMMARY AT END OF TIME STEP   30 IN STRESS PERIOD   48
                    SECONDS     MINUTES      HOURS       DAYS        YEARS
                    -----------------------------------------------------------
   TIME STEP LENGTH  87667.      1461.1      24.352      1.0147     2.77799E-03
 STRESS PERIOD TIME 2.63000E+06  43833.      730.56      30.440     8.33397E-02
         TOTAL TIME 1.23695E+08 2.06158E+06  34360.      1431.7      3.9197    
1
1
                            STRESS PERIOD NO.   49, LENGTH =   2630000.    
                            -----------------------------------------------

                              NUMBER OF TIME STEPS =    30

                               MULTIPLIER FOR DELT =     1.000

                            INITIAL TIME STEP SIZE =   87666.66    

 REUSING NON-PARAMETER GHB CELLS FROM LAST STRESS PERIOD

      2 GHB CELLS

 REUSING STREAM SEGMENT DATA FROM LAST STRESS PERIOD



            AREAL INFILTRATION RATE
 READING ON UNIT   19 WITH FORMAT: (10F4.0)            

            1           2           3           4           5           6           7           8           9          10
 ........................................................................................................................
   1   1.2000E-09   0.000       0.000       0.000       0.000       0.000       0.000       0.000       0.000       0.000    
   2   2.1000E-09  2.0000E-09  8.0000E-10  8.5000E-09   0.000       0.000       0.000       0.000       0.000       0.000    
   3   5.0000E-10  1.1000E-09  8.8000E-09  5.5000E-09   0.000       0.000       0.000       0.000       0.000       0.000    
   4   8.5000E-09  1.1000E-09  1.1000E-09  1.1000E-09  2.0000E-09   0.000       0.000       0.000       0.000       0.000    
   5   8.5000E-09  1.1000E-09  1.1000E-09  1.1000E-09  1.1000E-09   0.000       0.000       0.000       0.000       0.000    
   6   8.5000E-09  5.2000E-09  2.1000E-09  1.1000E-09  1.5000E-09   0.000       0.000       0.000       0.000       0.000    
   7   8.5000E-09  5.2000E-09  2.1000E-09  1.2000E-09  2.0000E-09   0.000       0.000       0.000       0.000       0.000    
   8   5.0000E-10  5.2000E-09  2.1000E-09  1.2000E-09  5.0000E-09   0.000       0.000       0.000       0.000       0.000    
   9   5.0000E-10  5.2000E-09  2.1000E-09  1.2000E-09  5.0000E-09   0.000       0.000       0.000       0.000       0.000    
  10   5.0000E-10  5.2000E-09  2.1000E-09  1.2000E-09  5.8000E-09   0.000       0.000       0.000       0.000       0.000    
  11   1.0000E-10  1.1000E-09  1.1000E-09  1.2000E-09  5.0000E-09   0.000       0.000       0.000       0.000       0.000    
  12   1.1000E-09  1.1000E-09  1.1000E-09  1.1000E-09  2.0000E-09   0.000       0.000       0.000       0.000       0.000    
  13   1.1000E-09  2.2000E-09  2.2000E-09  2.1000E-09  1.0000E-09   0.000       0.000       0.000       0.000       0.000    
  14   2.0000E-10  5.5000E-09  5.5000E-09  5.2000E-09  1.0000E-09   0.000       0.000       0.000       0.000       0.000    
  15    0.000      8.8000E-09  8.8000E-09   0.000       0.000       0.000       0.000       0.000       0.000       0.000    

                  ET RATE =  5.000000E-10

 USING ET EXTINCTION DEPTH FROM PREVIOUS STRESS PERIOD. CURRENT PERIOD IS:      49

 USING EXTINCTION WATER CONTENT FROM PREVIOUS STRESS PERIOD. CURRENT PERIOD IS:      49

 USING AIR ENTRY PRESSURE FROM PREVIOUS STRESS PERIOD. CURRENT PERIOD IS:      49

 USING ROOT PRESSURE HEAD FROM PREVIOUS STRESS PERIOD. CURRENT PERIOD IS:      49

 USING ROOT ACTIVITY FROM PREVIOUS STRESS PERIOD. CURRENT PERIOD IS:      49

 PROCESSING AG STRESS PERIOD DATA

 READING AG STRESS PERIOD DATA

 READING IRRIGATION SEGMENT

 READING IRRIGATION WELL

 READING SUPPLEMENTAL WELL

 END PROCESSING AG STRESS PERIOD DATA OPTIONS
 
 SOLVING FOR HEAD 
                                                   Max.-Head-Change                         Max.-Flux-Residual
  Residual-Control   Outer-Iter.   Inner-Iter.     Column Row Layer    Maximum-Head-Change  Column Row Layer    Maximum-Flux-Residual          L2-NORM 
          0                 1           2             4    7     1       0.1163317232E-01       4    7    1         0.6124379154E+00      0.1314775465E+01
          0                 2           2             4    7     1      -0.1131593410E-02       4    7    1        -0.6124399202E-01      0.1314776718E+00
          0                 3           1             4    7     1       0.7705728859E-04       4    7    1         0.4287079391E-02      0.9203450463E-02

    ------------------------------------------------
       NWT REQUIRED            3 OUTER ITERATIONS 
       AND A TOTAL OF          5 INNER ITERATIONS.
    ------------------------------------------------

 NO OUTPUT CONTROL FOR STRESS PERIOD   49   TIME STEP    1
 
 SOLVING FOR HEAD 
                                                   Max.-Head-Change                         Max.-Flux-Residual
  Residual-Control   Outer-Iter.   Inner-Iter.     Column Row Layer    Maximum-Head-Change  Column Row Layer    Maximum-Flux-Residual          L2-NORM 
          0                 1           2             4    7     1       0.1148208605E-01       4    7    1         0.6044454683E+00      0.1300529679E+01
          0                 2           2             4    7     1      -0.1116896759E-02       4    7    1        -0.6044474209E-01      0.1300530660E+00
          0                 3           1             4    7     1       0.7605650194E-04       4    7    1         0.4231131941E-02      0.9103708513E-02

    ------------------------------------------------
       NWT REQUIRED            3 OUTER ITERATIONS 
       AND A TOTAL OF          5 INNER ITERATIONS.
    ------------------------------------------------

 NO OUTPUT CONTROL FOR STRESS PERIOD   49   TIME STEP    2
 
 SOLVING FOR HEAD 
                                                   Max.-Head-Change                         Max.-Flux-Residual
  Residual-Control   Outer-Iter.   Inner-Iter.     Column Row Layer    Maximum-Head-Change  Column Row Layer    Maximum-Flux-Residual          L2-NORM 
          0                 1           2             4    7     1       0.1133372295E-01       4    7    1         0.5965970753E+00      0.1286535807E+01
          0                 2           2             4    7     1      -0.1102464999E-02       4    7    1        -0.5965989771E-01      0.1286536665E+00
          0                 3           1             4    7     1       0.7507375333E-04       4    7    1         0.4176192843E-02      0.9005850791E-02

    ------------------------------------------------
       NWT REQUIRED            3 OUTER ITERATIONS 
       AND A TOTAL OF          5 INNER ITERATIONS.
    ------------------------------------------------

 NO OUTPUT CONTROL FOR STRESS PERIOD   49   TIME STEP    3
 
 SOLVING FOR HEAD 
                                                   Max.-Head-Change                         Max.-Flux-Residual
  Residual-Control   Outer-Iter.   Inner-Iter.     Column Row Layer    Maximum-Head-Change  Column Row Layer    Maximum-Flux-Residual          L2-NORM 
          0                 1           2             4    7     1       0.1118801609E-01       4    7    1         0.5888898741E+00      0.1273786941E+01
          0                 2           2             4    7     1      -0.1088291622E-02       4    7    1        -0.5888917263E-01      0.1273779732E+00
          0                 3           1             4    7     1       0.7410859926E-04       4    7    1         0.4122242107E-02      0.8916387923E-02

    ------------------------------------------------
       NWT REQUIRED            3 OUTER ITERATIONS 
       AND A TOTAL OF          5 INNER ITERATIONS.
    ------------------------------------------------

 NO OUTPUT CONTROL FOR STRESS PERIOD   49   TIME STEP    4
 
 SOLVING FOR HEAD 
                                                   Max.-Head-Change                         Max.-Flux-Residual
  Residual-Control   Outer-Iter.   Inner-Iter.     Column Row Layer    Maximum-Head-Change  Column Row Layer    Maximum-Flux-Residual          L2-NORM 
          0                 1           2             4    7     1       0.1104490454E-01       4    7    1         0.5813203958E+00      0.1261363549E+01
          0                 2           2             4    7     1      -0.1074370700E-02       4    7    1        -0.5813222001E-01      0.1261342180E+00
          0                 3           1             4    7     1       0.7316063701E-04       4    7    1         0.4069255442E-02      0.8829190878E-02

    ------------------------------------------------
       NWT REQUIRED            3 OUTER ITERATIONS 
       AND A TOTAL OF          5 INNER ITERATIONS.
    ------------------------------------------------

 NO OUTPUT CONTROL FOR STRESS PERIOD   49   TIME STEP    5
 
 SOLVING FOR HEAD 
                                                   Max.-Head-Change                         Max.-Flux-Residual
  Residual-Control   Outer-Iter.   Inner-Iter.     Column Row Layer    Maximum-Head-Change  Column Row Layer    Maximum-Flux-Residual          L2-NORM 
          0                 1           2             4    7     1       0.1090420146E-01       4    7    1         0.5738781008E+00      0.1248035244E+01
          0                 2           2             4    7     1      -0.1060684058E-02       4    7    1        -0.5738798586E-01      0.1248016494E+00
          0                 3           1             4    7     1       0.7222862832E-04       4    7    1         0.4017159083E-02      0.8735947231E-02

    ------------------------------------------------
       NWT REQUIRED            3 OUTER ITERATIONS 
       AND A TOTAL OF          5 INNER ITERATIONS.
    ------------------------------------------------

 NO OUTPUT CONTROL FOR STRESS PERIOD   49   TIME STEP    6
 
 SOLVING FOR HEAD 
                                                   Max.-Head-Change                         Max.-Flux-Residual
  Residual-Control   Outer-Iter.   Inner-Iter.     Column Row Layer    Maximum-Head-Change  Column Row Layer    Maximum-Flux-Residual          L2-NORM 
          0                 1           2             4    7     1       0.1076612000E-01       4    7    1         0.5665754397E+00      0.1234932584E+01
          0                 2           2             4    7     1      -0.1047268250E-02       4    7    1        -0.5665771522E-01      0.1235211291E+00
          0                 3           1             4    7     1       0.7131506203E-04       4    7    1         0.3966040157E-02      0.8646302068E-02

    ------------------------------------------------
       NWT REQUIRED            3 OUTER ITERATIONS 
       AND A TOTAL OF          5 INNER ITERATIONS.
    ------------------------------------------------

 NO OUTPUT CONTROL FOR STRESS PERIOD   49   TIME STEP    7
 
 SOLVING FOR HEAD 
                                                   Max.-Head-Change                         Max.-Flux-Residual
  Residual-Control   Outer-Iter.   Inner-Iter.     Column Row Layer    Maximum-Head-Change  Column Row Layer    Maximum-Flux-Residual          L2-NORM 
          0                 1           2             4    7     1       0.1063024292E-01       4    7    1         0.5593931060E+00      0.1222037568E+01
          0                 2           2             4    7     1      -0.1034035240E-02       4    7    1        -0.5593947755E-01      0.1222022152E+00
          0                 3           1             4    7     1       0.7041394382E-04       4    7    1         0.3915763546E-02      0.8554017835E-02

    ------------------------------------------------
       NWT REQUIRED            3 OUTER ITERATIONS 
       AND A TOTAL OF          5 INNER ITERATIONS.
    ------------------------------------------------

 NO OUTPUT CONTROL FOR STRESS PERIOD   49   TIME STEP    8
 
 SOLVING FOR HEAD 
                                                   Max.-Head-Change                         Max.-Flux-Residual
  Residual-Control   Outer-Iter.   Inner-Iter.     Column Row Layer    Maximum-Head-Change  Column Row Layer    Maximum-Flux-Residual          L2-NORM 
          0                 1           2             4    7     1       0.1049685366E-01       4    7    1         0.5523415054E+00      0.1209312927E+01
          0                 2           2             4    7     1      -0.1021060039E-02       4    7    1        -0.5523431328E-01      0.1209298879E+00
          0                 3           1             4    7     1       0.6953038084E-04       4    7    1         0.3866402050E-02      0.8464970568E-02

    ------------------------------------------------
       NWT REQUIRED            3 OUTER ITERATIONS 
       AND A TOTAL OF          5 INNER ITERATIONS.
    ------------------------------------------------

 NO OUTPUT CONTROL FOR STRESS PERIOD   49   TIME STEP    9
 
 SOLVING FOR HEAD 
                                                   Max.-Head-Change                         Max.-Flux-Residual
  Residual-Control   Outer-Iter.   Inner-Iter.     Column Row Layer    Maximum-Head-Change  Column Row Layer    Maximum-Flux-Residual          L2-NORM 
          0                 1           2             4    7     1       0.1036560925E-01       4    7    1         0.5454032949E+00      0.1196805242E+01
          0                 2           2             4    7     1      -0.1008293476E-02       4    7    1        -0.5454048814E-01      0.1196792463E+00
          0                 3           1             4    7     1       0.6866102631E-04       4    7    1         0.3817834329E-02      0.8377432297E-02

    ------------------------------------------------
       NWT REQUIRED            3 OUTER ITERATIONS 
       AND A TOTAL OF          5 INNER ITERATIONS.
    ------------------------------------------------

 NO OUTPUT CONTROL FOR STRESS PERIOD   49   TIME STEP   10
 
 SOLVING FOR HEAD 
                                                   Max.-Head-Change                         Max.-Flux-Residual
  Residual-Control   Outer-Iter.   Inner-Iter.     Column Row Layer    Maximum-Head-Change  Column Row Layer    Maximum-Flux-Residual          L2-NORM 
          0                 1           2             4    7     1       0.1023660938E-01       4    7    1         0.5385836717E+00      0.1184510328E+01
          0                 2           2             4    7     1      -0.9957452467E-03       4    7    1        -0.5385852181E-01      0.1184498730E+00
          0                 3           1             4    7     1       0.6780653900E-04       4    7    1         0.3770096690E-02      0.8291357605E-02

    ------------------------------------------------
       NWT REQUIRED            3 OUTER ITERATIONS 
       AND A TOTAL OF          5 INNER ITERATIONS.
    ------------------------------------------------

 NO OUTPUT CONTROL FOR STRESS PERIOD   49   TIME STEP   11
 
 SOLVING FOR HEAD 
                                                   Max.-Head-Change                         Max.-Flux-Residual
  Residual-Control   Outer-Iter.   Inner-Iter.     Column Row Layer    Maximum-Head-Change  Column Row Layer    Maximum-Flux-Residual          L2-NORM 
          0                 1           2             4    7     1       0.1010981255E-01       4    7    1         0.5318804243E+00      0.1172421427E+01
          0                 2           2             4    7     1      -0.9834113152E-03       4    7    1        -0.5318819319E-01      0.1172410609E+00
          0                 3           1             4    7     1       0.6696664401E-04       4    7    1         0.3723173695E-02      0.8206786391E-02

    ------------------------------------------------
       NWT REQUIRED            3 OUTER ITERATIONS 
       AND A TOTAL OF          5 INNER ITERATIONS.
    ------------------------------------------------

 NO OUTPUT CONTROL FOR STRESS PERIOD   49   TIME STEP   12
 
 SOLVING FOR HEAD 
                                                   Max.-Head-Change                         Max.-Flux-Residual
  Residual-Control   Outer-Iter.   Inner-Iter.     Column Row Layer    Maximum-Head-Change  Column Row Layer    Maximum-Flux-Residual          L2-NORM 
          0                 1           2             4    7     1       0.9985438666E-02       4    7    1         0.5253061622E+00      0.1160544263E+01
          0                 2           2             4    7     1      -0.9713130711E-03       4    7    1        -0.5253076320E-01      0.1160534200E+00
          0                 3           1             4    7     1       0.6614279927E-04       4    7    1         0.3677153619E-02      0.8123631005E-02

    ------------------------------------------------
       NWT REQUIRED            3 OUTER ITERATIONS 
       AND A TOTAL OF          5 INNER ITERATIONS.
    ------------------------------------------------

 NO OUTPUT CONTROL FOR STRESS PERIOD   49   TIME STEP   13
 
 SOLVING FOR HEAD 
                                                   Max.-Head-Change                         Max.-Flux-Residual
  Residual-Control   Outer-Iter.   Inner-Iter.     Column Row Layer    Maximum-Head-Change  Column Row Layer    Maximum-Flux-Residual          L2-NORM 
          0                 1           2             4    7     1       0.9862887761E-02       4    7    1         0.5188280046E+00      0.1148850079E+01
          0                 2           2             4    7     1      -0.9593921560E-03       4    7    1        -0.5188294379E-01      0.1148840619E+00
          0                 3           1             4    7     1       0.6533103030E-04       4    7    1         0.3631806298E-02      0.8041789119E-02

    ------------------------------------------------
       NWT REQUIRED            3 OUTER ITERATIONS 
       AND A TOTAL OF          5 INNER ITERATIONS.
    ------------------------------------------------

 NO OUTPUT CONTROL FOR STRESS PERIOD   49   TIME STEP   14
 
 SOLVING FOR HEAD 
                                                   Max.-Head-Change                         Max.-Flux-Residual
  Residual-Control   Outer-Iter.   Inner-Iter.     Column Row Layer    Maximum-Head-Change  Column Row Layer    Maximum-Flux-Residual          L2-NORM 
          0                 1           2             4    7     1       0.9742680178E-02       4    7    1         0.5124738878E+00      0.1137366497E+01
          0                 2           2             4    7     1      -0.9476991826E-03       4    7    1        -0.5124752853E-01      0.1137358076E+00
          0                 3           1             4    7     1       0.6453478213E-04       4    7    1         0.3587327224E-02      0.7961421107E-02

    ------------------------------------------------
       NWT REQUIRED            3 OUTER ITERATIONS 
       AND A TOTAL OF          5 INNER ITERATIONS.
    ------------------------------------------------

 NO OUTPUT CONTROL FOR STRESS PERIOD   49   TIME STEP   15
 
 SOLVING FOR HEAD 
                                                   Max.-Head-Change                         Max.-Flux-Residual
  Residual-Control   Outer-Iter.   Inner-Iter.     Column Row Layer    Maximum-Head-Change  Column Row Layer    Maximum-Flux-Residual          L2-NORM 
          0                 1           2             4    7     1       0.9624214848E-02       4    7    1         0.5062117465E+00      0.1126056611E+01
          0                 2           2             4    7     1      -0.9361756842E-03       4    7    1        -0.5062131090E-01      0.1126048540E+00
          0                 3           1             4    7     1       0.6375007485E-04       4    7    1         0.3543491983E-02      0.7882241985E-02

    ------------------------------------------------
       NWT REQUIRED            3 OUTER ITERATIONS 
       AND A TOTAL OF          5 INNER ITERATIONS.
    ------------------------------------------------

 NO OUTPUT CONTROL FOR STRESS PERIOD   49   TIME STEP   16
 
 SOLVING FOR HEAD 
                                                   Max.-Head-Change                         Max.-Flux-Residual
  Residual-Control   Outer-Iter.   Inner-Iter.     Column Row Layer    Maximum-Head-Change  Column Row Layer    Maximum-Flux-Residual          L2-NORM 
          0                 1           2             4    7     1       0.9508006149E-02       4    7    1         0.5000694613E+00      0.1114942310E+01
          0                 2           2             4    7     1      -0.9248716970E-03       4    7    1        -0.5000707901E-01      0.1114935233E+00
          0                 3           1             4    7     1       0.6298031610E-04       4    7    1         0.3500495787E-02      0.7804476413E-02

    ------------------------------------------------
       NWT REQUIRED            3 OUTER ITERATIONS 
       AND A TOTAL OF          5 INNER ITERATIONS.
    ------------------------------------------------

 NO OUTPUT CONTROL FOR STRESS PERIOD   49   TIME STEP   17
 
 SOLVING FOR HEAD 
                                                   Max.-Head-Change                         Max.-Flux-Residual
  Residual-Control   Outer-Iter.   Inner-Iter.     Column Row Layer    Maximum-Head-Change  Column Row Layer    Maximum-Flux-Residual          L2-NORM 
          0                 1           2             4    7     1       0.9393727655E-02       4    7    1         0.4940294176E+00      0.1104005508E+01
          0                 2           2             4    7     1      -0.9137554669E-03       4    7    1        -0.4940307135E-01      0.1103998463E+00
          0                 3           1             4    7     1       0.6222334244E-04       4    7    1         0.3458215263E-02      0.7727911555E-02

    ------------------------------------------------
       NWT REQUIRED            3 OUTER ITERATIONS 
       AND A TOTAL OF          5 INNER ITERATIONS.
    ------------------------------------------------

 NO OUTPUT CONTROL FOR STRESS PERIOD   49   TIME STEP   18
 
 SOLVING FOR HEAD 
                                                   Max.-Head-Change                         Max.-Flux-Residual
  Residual-Control   Outer-Iter.   Inner-Iter.     Column Row Layer    Maximum-Head-Change  Column Row Layer    Maximum-Flux-Residual          L2-NORM 
          0                 1           2             4    7     1       0.9281344896E-02       4    7    1         0.4880894521E+00      0.1093251644E+01
          0                 2           2             4    7     1      -0.9028236409E-03       4    7    1        -0.4880907158E-01      0.1093245045E+00
          0                 3           1             4    7     1       0.6147892548E-04       4    7    1         0.3416635281E-02      0.7652651493E-02

    ------------------------------------------------
       NWT REQUIRED            3 OUTER ITERATIONS 
       AND A TOTAL OF          5 INNER ITERATIONS.
    ------------------------------------------------

 NO OUTPUT CONTROL FOR STRESS PERIOD   49   TIME STEP   19
 
 SOLVING FOR HEAD 
                                                   Max.-Head-Change                         Max.-Flux-Residual
  Residual-Control   Outer-Iter.   Inner-Iter.     Column Row Layer    Maximum-Head-Change  Column Row Layer    Maximum-Flux-Residual          L2-NORM 
          0                 1           2             4    7     1       0.9170816590E-02       4    7    1         0.4822477778E+00      0.1082664367E+01
          0                 2           2             4    7     1      -0.8920722048E-03       4    7    1        -0.4822490104E-01      0.1082658086E+00
          0                 3           1             4    7     1       0.6074679328E-04       4    7    1         0.3375743369E-02      0.7578530440E-02

    ------------------------------------------------
       NWT REQUIRED            3 OUTER ITERATIONS 
       AND A TOTAL OF          5 INNER ITERATIONS.
    ------------------------------------------------

 NO OUTPUT CONTROL FOR STRESS PERIOD   49   TIME STEP   20
 
 SOLVING FOR HEAD 
                                                   Max.-Head-Change                         Max.-Flux-Residual
  Residual-Control   Outer-Iter.   Inner-Iter.     Column Row Layer    Maximum-Head-Change  Column Row Layer    Maximum-Flux-Residual          L2-NORM 
          0                 1           2             4    7     1       0.9062103658E-02       4    7    1         0.4765022540E+00      0.1072246541E+01
          0                 2           2             4    7     1      -0.8814973559E-03       4    7    1        -0.4765034563E-01      0.1072240610E+00
          0                 3           1             4    7     1       0.6002668621E-04       4    7    1         0.3335524507E-02      0.7505627771E-02

    ------------------------------------------------
       NWT REQUIRED            3 OUTER ITERATIONS 
       AND A TOTAL OF          5 INNER ITERATIONS.
    ------------------------------------------------

 NO OUTPUT CONTROL FOR STRESS PERIOD   49   TIME STEP   21
 
 SOLVING FOR HEAD 
                                                   Max.-Head-Change                         Max.-Flux-Residual
  Residual-Control   Outer-Iter.   Inner-Iter.     Column Row Layer    Maximum-Head-Change  Column Row Layer    Maximum-Flux-Residual          L2-NORM 
          0                 1           2             4    7     1       0.8955439874E-02       4    7    1         0.4708656179E+00      0.1061996553E+01
          0                 2           2             4    7     1      -0.8711218342E-03       4    7    1        -0.4708667905E-01      0.1061990579E+00
          0                 3           1             4    7     1       0.5932015188E-04       4    7    1         0.3296067851E-02      0.7433880715E-02

    ------------------------------------------------
       NWT REQUIRED            3 OUTER ITERATIONS 
       AND A TOTAL OF          5 INNER ITERATIONS.
    ------------------------------------------------

 NO OUTPUT CONTROL FOR STRESS PERIOD   49   TIME STEP   22
 
 SOLVING FOR HEAD 
                                                   Max.-Head-Change                         Max.-Flux-Residual
  Residual-Control   Outer-Iter.   Inner-Iter.     Column Row Layer    Maximum-Head-Change  Column Row Layer    Maximum-Flux-Residual          L2-NORM 
          0                 1           2             4    7     1       0.8850232678E-02       4    7    1         0.4653057005E+00      0.1051897737E+01
          0                 2           2             4    7     1      -0.8608880004E-03       4    7    1        -0.4653068444E-01      0.1051892291E+00
          0                 3           1             4    7     1       0.5862326625E-04       4    7    1         0.3257148253E-02      0.7363197279E-02

    ------------------------------------------------
       NWT REQUIRED            3 OUTER ITERATIONS 
       AND A TOTAL OF          5 INNER ITERATIONS.
    ------------------------------------------------

 NO OUTPUT CONTROL FOR STRESS PERIOD   49   TIME STEP   23
 
 SOLVING FOR HEAD 
                                                   Max.-Head-Change                         Max.-Flux-Residual
  Residual-Control   Outer-Iter.   Inner-Iter.     Column Row Layer    Maximum-Head-Change  Column Row Layer    Maximum-Flux-Residual          L2-NORM 
          0                 1           2             4    7     1       0.8747007485E-02       4    7    1         0.4598508321E+00      0.1041969256E+01
          0                 2           2             4    7     1      -0.8508469621E-03       4    7    1        -0.4598519480E-01      0.1041964061E+00
          0                 3           1             4    7     1       0.5793950889E-04       4    7    1         0.3218963964E-02      0.7293693995E-02

    ------------------------------------------------
       NWT REQUIRED            3 OUTER ITERATIONS 
       AND A TOTAL OF          5 INNER ITERATIONS.
    ------------------------------------------------

 NO OUTPUT CONTROL FOR STRESS PERIOD   49   TIME STEP   24
 
 SOLVING FOR HEAD 
                                                   Max.-Head-Change                         Max.-Flux-Residual
  Residual-Control   Outer-Iter.   Inner-Iter.     Column Row Layer    Maximum-Head-Change  Column Row Layer    Maximum-Flux-Residual          L2-NORM 
          0                 1           2             4    7     1       0.8645436433E-02       4    7    1         0.4544839642E+00      0.1032186636E+01
          0                 2           2             4    7     1      -0.8409668282E-03       4    7    1        -0.4544850528E-01      0.1032181598E+00
          0                 3           1             4    7     1       0.5726670902E-04       4    7    1         0.3181395719E-02      0.7225614904E-02

    ------------------------------------------------
       NWT REQUIRED            3 OUTER ITERATIONS 
       AND A TOTAL OF          5 INNER ITERATIONS.
    ------------------------------------------------

 NO OUTPUT CONTROL FOR STRESS PERIOD   49   TIME STEP   25
 
 SOLVING FOR HEAD 
                                                   Max.-Head-Change                         Max.-Flux-Residual
  Residual-Control   Outer-Iter.   Inner-Iter.     Column Row Layer    Maximum-Head-Change  Column Row Layer    Maximum-Flux-Residual          L2-NORM 
          0                 1           2             4    7     1       0.8545761507E-02       4    7    1         0.4492176252E+00      0.1022570545E+01
          0                 2           2             4    7     1      -0.8312711369E-03       4    7    1        -0.4492186875E-01      0.1022565744E+00
          0                 3           1             4    7     1       0.5660646869E-04       4    7    1         0.3144531159E-02      0.7157904303E-02

    ------------------------------------------------
       NWT REQUIRED            3 OUTER ITERATIONS 
       AND A TOTAL OF          5 INNER ITERATIONS.
    ------------------------------------------------

 NO OUTPUT CONTROL FOR STRESS PERIOD   49   TIME STEP   26
 
 SOLVING FOR HEAD 
                                                   Max.-Head-Change                         Max.-Flux-Residual
  Residual-Control   Outer-Iter.   Inner-Iter.     Column Row Layer    Maximum-Head-Change  Column Row Layer    Maximum-Flux-Residual          L2-NORM 
          0                 1           2             4    7     1       0.8447518090E-02       4    7    1         0.4440348334E+00      0.1147294799E+01
          0                 2           2             4    7     1      -0.8217146942E-03       4    7    1        -0.4440358709E-01      0.1143681990E+00
          0                 3           1             4    7     1       0.5595570997E-04       4    7    1         0.3108251461E-02      0.7973139069E-02

    ------------------------------------------------
       NWT REQUIRED            3 OUTER ITERATIONS 
       AND A TOTAL OF          5 INNER ITERATIONS.
    ------------------------------------------------

 NO OUTPUT CONTROL FOR STRESS PERIOD   49   TIME STEP   27
 
 SOLVING FOR HEAD 
                                                   Max.-Head-Change                         Max.-Flux-Residual
  Residual-Control   Outer-Iter.   Inner-Iter.     Column Row Layer    Maximum-Head-Change  Column Row Layer    Maximum-Flux-Residual          L2-NORM 
          0                 1           2             4    7     1       0.8350556488E-02       4    7    1         0.4389114959E+00      0.1005573026E+01
          0                 2           2             4    7     1      -0.8122829371E-03       4    7    1        -0.4389125082E-01      0.1005568841E+00
          0                 3           1             4    7     1       0.5531344309E-04       4    7    1         0.3072387935E-02      0.7038934668E-02

    ------------------------------------------------
       NWT REQUIRED            3 OUTER ITERATIONS 
       AND A TOTAL OF          5 INNER ITERATIONS.
    ------------------------------------------------

 NO OUTPUT CONTROL FOR STRESS PERIOD   49   TIME STEP   28
 
 SOLVING FOR HEAD 
                                                   Max.-Head-Change                         Max.-Flux-Residual
  Residual-Control   Outer-Iter.   Inner-Iter.     Column Row Layer    Maximum-Head-Change  Column Row Layer    Maximum-Flux-Residual          L2-NORM 
          0                 1           2             4    7     1       0.8255668195E-02       4    7    1         0.4338989160E+00      0.9963725515E+00
          0                 2           2             4    7     1      -0.8050401249E-03       4    7    1        -0.4351726504E-01      0.9968112807E-01
          0                 3           1             4    7     1       0.5482023256E-04       4    7    1         0.3046208776E-02      0.6977638400E-02

    ------------------------------------------------
       NWT REQUIRED            3 OUTER ITERATIONS 
       AND A TOTAL OF          5 INNER ITERATIONS.
    ------------------------------------------------

 NO OUTPUT CONTROL FOR STRESS PERIOD   49   TIME STEP   29
 
 SOLVING FOR HEAD 
                                                   Max.-Head-Change                         Max.-Flux-Residual
  Residual-Control   Outer-Iter.   Inner-Iter.     Column Row Layer    Maximum-Head-Change  Column Row Layer    Maximum-Flux-Residual          L2-NORM 
          0                 1           2             4    7     1       0.8157460712E-02       4    7    1         0.4288435501E+00      0.9872708758E+00
          0                 2           2             4    7     1      -0.7935001226E-03       4    7    1        -0.4288446605E-01      0.9872667352E-01
          0                 3           1             4    7     1       0.5403440203E-04       4    7    1         0.3001912880E-02      0.6910833072E-02

    ------------------------------------------------
       NWT REQUIRED            3 OUTER ITERATIONS 
       AND A TOTAL OF          5 INNER ITERATIONS.
    ------------------------------------------------

 NO OUTPUT CONTROL FOR STRESS PERIOD   49   TIME STEP   30



 STREAM LISTING     PERIOD     49   STEP       30

 LAYER ROW COL. STREAM  RCH.  FLOW INTO     FLOW TO   FLOW OUT OF   OVRLND.     DIRECT     STREAM       STREAM     STREAM     STREAM   STREAMBED  STREAMBED
                SEG.NO.  NO.  STRM. RCH.    AQUIFER    STRM. RCH.    RUNOFF     PRECIP       ET          HEAD       DEPTH      WIDTH   CONDCTNC.   GRADIENT

   1    1    1     1     1    1.4250E+01  1.8169E-01   1.4068E+01  0.000E+00  0.000E+00  0.000E+00  1.09404E+03  9.953E-01  1.011E+01  4.547E-02  1.332E+00
   1    2    2     1     2    1.4068E+01  2.7999E-01   1.3788E+01  0.000E+00  0.000E+00  0.000E+00  1.08905E+03  9.906E-01  1.002E+01  7.016E-02  1.330E+00
   1    3    3     1     3    1.3788E+01  2.3745E-01   1.3551E+01  0.000E+00  0.000E+00  0.000E+00  1.08340E+03  9.852E-01  9.930E+00  5.958E-02  1.328E+00
   1    3    4     1     4    1.3551E+01  2.1755E-01   1.3333E+01  0.000E+00  0.000E+00  0.000E+00  1.07839E+03  9.805E-01  9.848E+00  5.465E-02  1.327E+00
   1    4    5     2     1    1.1333E+01  2.9214E-01   1.1041E+01  0.000E+00  0.000E+00  0.000E+00  1.07268E+03  7.454E-01  1.200E+01  7.800E-02  1.248E+00
   1    5    6     2     2    1.1041E+01  2.2410E-01   1.0817E+01  0.000E+00  0.000E+00  0.000E+00  1.06724E+03  7.350E-01  1.200E+01  6.000E-02  1.245E+00
   1    6    6     2     3    1.0817E+01  2.2356E-01   1.0594E+01  0.000E+00  0.000E+00  0.000E+00  1.06252E+03  7.259E-01  1.200E+01  6.000E-02  1.242E+00
   1    7    6     2     4    1.0594E+01  2.2301E-01   1.0371E+01  0.000E+00  0.000E+00  0.000E+00  1.05779E+03  7.168E-01  1.200E+01  6.000E-02  1.239E+00
   1    8    6     2     5    1.0371E+01  2.2246E-01   1.0148E+01  0.000E+00  0.000E+00  0.000E+00  1.05307E+03  7.076E-01  1.200E+01  6.000E-02  1.236E+00
   1    3    5     3     1    2.0000E+00  2.8252E-01   1.7175E+00  0.000E+00  0.000E+00  0.000E+00  1.07555E+03  1.909E+00  9.636E+00  7.227E-02  1.955E+00
   1    3    6     3     2    1.7175E+00  2.4905E-01   1.4684E+00  0.000E+00  0.000E+00  0.000E+00  1.07264E+03  1.727E+00  8.909E+00  6.682E-02  1.864E+00
   1    3    7     3     3    1.4684E+00  1.9718E-01   1.2712E+00  0.000E+00  0.000E+00  0.000E+00  1.06987E+03  1.555E+00  8.218E+00  5.547E-02  1.777E+00
   1    4    8     3     4    1.2712E+00  2.2567E-01   1.0456E+00  0.000E+00  0.000E+00  0.000E+00  1.06682E+03  1.364E+00  7.455E+00  6.709E-02  1.682E+00
   1    5    8     3     5    1.0456E+00  1.5790E-01   8.8768E-01  0.000E+00  0.000E+00  0.000E+00  1.06362E+03  1.164E+00  6.655E+00  4.991E-02  1.582E+00
   1    6    8     3     6    8.8768E-01  5.5980E-02   8.3170E-01  0.000E+00  0.000E+00  0.000E+00  1.06158E+03  1.036E+00  6.145E+00  1.844E-02  1.518E+00
   1    5   10     4     1    1.0000E+01  9.0919E-02   9.9091E+00  0.000E+00  0.000E+00  0.000E+00  1.07836E+03  6.368E-01  1.000E+01  2.500E-02  1.212E+00
   1    5    9     4     2    9.9091E+00  1.8158E-01   9.7275E+00  0.000E+00  0.000E+00  0.000E+00  1.07154E+03  6.315E-01  1.000E+01  5.000E-02  1.211E+00
   1    6    8     4     3    9.7275E+00  1.2689E-01   9.6006E+00  0.000E+00  0.000E+00  0.000E+00  1.06381E+03  6.256E-01  1.000E+01  3.500E-02  1.209E+00
   1    6    8     5     1    1.0432E+01  2.2686E-01   1.0205E+01  0.000E+00  0.000E+00  0.000E+00  1.05868E+03  6.790E-01  1.542E+01  6.166E-02  1.226E+00
   1    7    7     5     2    1.0205E+01  2.7894E-01   9.9265E+00  0.000E+00  0.000E+00  0.000E+00  1.05417E+03  6.732E-01  1.519E+01  7.594E-02  1.224E+00
   1    8    7     5     3    9.9265E+00  1.9221E-01   9.7343E+00  0.000E+00  0.000E+00  0.000E+00  1.04992E+03  6.676E-01  1.497E+01  5.241E-02  1.223E+00
   1    8    6     5     4    9.7343E+00  1.3577E-01   9.5985E+00  0.000E+00  0.000E+00  0.000E+00  1.04691E+03  6.637E-01  1.482E+01  3.706E-02  1.221E+00
   1    9    6     6     1    1.9747E+01  2.4336E-01   1.9503E+01  0.000E+00  0.000E+00  0.000E+00  1.04378E+03  1.056E+00  1.200E+01  6.000E-02  1.352E+00
   1   10    7     6     2    1.9503E+01  2.4289E-01   1.9260E+01  0.000E+00  0.000E+00  0.000E+00  1.03923E+03  1.048E+00  1.200E+01  6.000E-02  1.349E+00
   1   11    7     6     3    1.9260E+01  2.4241E-01   1.9018E+01  0.000E+00  0.000E+00  0.000E+00  1.03468E+03  1.040E+00  1.200E+01  6.000E-02  1.347E+00
   1   12    7     6     4    1.9018E+01  2.4194E-01   1.8776E+01  0.000E+00  0.000E+00  0.000E+00  1.03012E+03  1.032E+00  1.200E+01  6.000E-02  1.344E+00
   1   13    7     6     5    1.8776E+01 -1.9082E-02   1.8795E+01  0.000E+00  0.000E+00  0.000E+00  1.02694E+03  1.029E+00  1.200E+01  2.400E-01 -2.650E-02
   1   14    9     7     1    1.5000E+02  1.3455E+00   1.4865E+02  0.000E+00  0.000E+00  0.000E+00  1.03987E+03  2.288E+00  5.529E+01  5.593E-01  8.019E-01
   1   13    8     7     2    1.4865E+02  1.8550E+00   1.4680E+02  0.000E+00  0.000E+00  0.000E+00  1.03478E+03  2.279E+00  5.526E+01  6.148E-01  1.006E+00
   1   13    7     7     3    1.4680E+02  1.4924E+00   1.4531E+02  0.000E+00  0.000E+00  0.000E+00  1.02969E+03  2.270E+00  5.522E+01  5.584E-01  8.908E-01
   1   13    6     8     1    1.6410E+02  9.1002E-01   1.6319E+02  0.000E+00  0.000E+00  0.000E+00  1.02479E+03  2.910E+00  4.220E+01  4.300E-01  7.054E-01
   1   13    5     8     2    1.6319E+02  1.6772E-01   1.6302E+02  0.000E+00  0.000E+00  0.000E+00  1.01853E+03  2.907E+00  4.215E+01  4.295E-01  1.302E-01
   1   13    4     8     3    1.6302E+02 -2.4570E+00   1.6548E+02  0.000E+00  0.000E+00  0.000E+00  1.01229E+03  2.914E+00  4.226E+01  4.306E+00 -1.902E-01
   1   13    3     8     4    1.6548E+02 -3.6502E+00   1.6913E+02  0.000E+00  0.000E+00  0.000E+00  1.00606E+03  2.935E+00  4.255E+01  4.336E+00 -2.806E-01
   1   13    2     8     5    1.6913E+02 -2.5747E+00   1.7171E+02  0.000E+00  0.000E+00  0.000E+00  9.99830E+02  2.955E+00  4.285E+01  4.366E+00 -1.966E-01
   1   13    1     8     6    1.7171E+02 -1.9817E+00   1.7369E+02  0.000E+00  0.000E+00  0.000E+00  9.94845E+02  2.970E+00  4.306E+01  2.633E+00 -2.509E-01
   1    8    6     9     1    0.0000E+00  0.0000E+00   0.0000E+00  0.000E+00  0.000E+00  0.000E+00  1.07875E+03  0.000E+00  4.000E+00  0.000E+00  1.000E+00
   1    8    5     9     2    0.0000E+00  0.0000E+00   0.0000E+00  0.000E+00  0.000E+00  0.000E+00  1.07825E+03  0.000E+00  4.000E+00  0.000E+00  1.000E+00





UNSATURATED ZONE PACKAGE VOLUMETRIC BUDGET FOR  TIME STEP    30 STRESS PERIOD   49
  ------------------------------------------------------------------------------



     CUMULATIVE VOLUMES      L**3       RATES FOR THIS TIME STEP      L**3/T
     ------------------                 ------------------------

           IN:                                      IN:
           ---                                      ---
        INFILTRATION =  2139691305.8591          INFILTRATION =           4.4075

          OUT:                                     OUT:
          ----                                     ----
              UZF ET =  1985665204.1205                UZF ET =           0.7250
        UZF RECHARGE =     1884068.5034          UZF RECHARGE =       0.0000E+00

            IN - OUT =   152142033.2353              IN - OUT =           3.6825

          STORAGE:                                 STORAGE:
          --------                                 --------
      STORAGE CHANGE =   152143872.1600        STORAGE CHANGE =           3.6825

 PERCENT DISCREPANCY IS DIFFERENCE BETWEEN IN-OUT MINUS CHANGE IN STORAGE
 DIVIDED BY THE AVERAGE OF IN AND OUT TIMES 100

 PERCENT DISCREPANCY =          -0.00     PERCENT DISCREPANCY =           0.00






1
  VOLUMETRIC BUDGET FOR AGRICULTURAL FIELDS AT TIME STEP   30, STRESS PERIOD  49
  ------------------------------------------------------------------------------

     CUMULATIVE VOLUMES      L**3       RATES FOR THIS TIME STEP      L**3/T
     ------------------                 ------------------------

           IN:                                      IN:
           ---                                      ---
               AG WELLS  =   350366144.0000                 AG WELLS  =           0.0000
      DIVERSION SEGMENTS =  1232828032.0000        DIVERSION SEGMENTS =           0.0000
           GW IRRIGATION =           0.0000             GW IRRIGATION =           0.0000
           SW IRRIGATION =           0.0000             SW IRRIGATION =           0.0000
        SYSTEM LOSSES GW =           0.0000          SYSTEM LOSSES GW =           0.0000
        SYSTEM LOSSES SW =           0.0000          SYSTEM LOSSES SW =           0.0000

                TOTAL IN =  1583194112.0000                  TOTAL IN =           0.0000

          OUT:                                     OUT:
          ----                                     ----
               AG WELLS  =           0.0000                 AG WELLS  =           0.0000
      DIVERSION SEGMENTS =           0.0000        DIVERSION SEGMENTS =           0.0000
           GW IRRIGATION =   350366144.0000             GW IRRIGATION =           0.0000
           SW IRRIGATION =  1232850688.0000             SW IRRIGATION =           0.0000
        SYSTEM LOSSES GW =           0.0000          SYSTEM LOSSES GW =           0.0000
        SYSTEM LOSSES SW =           0.0000          SYSTEM LOSSES SW =           0.0000

               TOTAL OUT =  1583216896.0000                 TOTAL OUT =           0.0000

                IN - OUT =      -22784.0000                  IN - OUT =           0.0000

     PERCENT DISCREPANCY =          -0.00         PERCENT DISCREPANCY =           0.00



1
  VOLUMETRIC BUDGET FOR ENTIRE MODEL AT END OF TIME STEP   30, STRESS PERIOD  49
  ------------------------------------------------------------------------------

     CUMULATIVE VOLUMES      L**3       RATES FOR THIS TIME STEP      L**3/T
     ------------------                 ------------------------

           IN:                                      IN:
           ---                                      ---
             STORAGE     =   573649088.0000               STORAGE     =           2.6690
       CONSTANT HEAD     =           0.0000         CONSTANT HEAD     =           0.0000
     HEAD DEP BOUNDS     =    36122268.0000       HEAD DEP BOUNDS     =           0.2864
      STREAM LEAKAGE     =  1504674048.0000        STREAM LEAKAGE     =          11.2446
        UZF RECHARGE     =     1884068.8750          UZF RECHARGE     =           0.0000
               GW ET     =           0.0000                 GW ET     =           0.0000
     SURFACE LEAKAGE     =           0.0000       SURFACE LEAKAGE     =           0.0000
           AG WELLS      =           0.0000             AG WELLS      =           0.0000

                TOTAL IN =  2116329344.0000                  TOTAL IN =          14.2001

          OUT:                                     OUT:
          ----                                     ----
             STORAGE     =   361157696.0000               STORAGE     =           3.2288
       CONSTANT HEAD     =           0.0000         CONSTANT HEAD     =           0.0000
     HEAD DEP BOUNDS     =    36706208.0000       HEAD DEP BOUNDS     =           0.2887
      STREAM LEAKAGE     =  1364222976.0000        STREAM LEAKAGE     =          10.6827
        UZF RECHARGE     =           0.0000          UZF RECHARGE     =           0.0000
               GW ET     =     3813745.5000                 GW ET     =           0.0000
     SURFACE LEAKAGE     =           0.0000       SURFACE LEAKAGE     =           0.0000
           AG WELLS      =   350366144.0000             AG WELLS      =           0.0000

               TOTAL OUT =  2116266752.0000                 TOTAL OUT =          14.2002

                IN - OUT =       62592.0000                  IN - OUT =      -1.5640E-04

     PERCENT DISCREPANCY =           0.00         PERCENT DISCREPANCY =          -0.00






         TIME SUMMARY AT END OF TIME STEP   30 IN STRESS PERIOD   49
                    SECONDS     MINUTES      HOURS       DAYS        YEARS
                    -----------------------------------------------------------
   TIME STEP LENGTH  87667.      1461.1      24.352      1.0147     2.77799E-03
 STRESS PERIOD TIME 2.63000E+06  43833.      730.56      30.440     8.33397E-02
         TOTAL TIME 1.26325E+08 2.10542E+06  35090.      1462.1      4.0030    
1

 Run end date and time (yyyy/mm/dd hh:mm:ss): 2020/03/03 10:38:50
 Elapsed run time:  9.642 Seconds

